/*--------------------------------*- C++ -*----------------------------------*\
| =========                 |                                                 |
| \\      /  F ield         | OpenFOAM: The Open Source CFD Toolbox           |
|  \\    /   O peration     | Version:  v2206                                 |
|   \\  /    A nd           | Website:  www.openfoam.com                      |
|    \\/     M anipulation  |                                                 |
\*---------------------------------------------------------------------------*/
FoamFile
{
    version     2.0;
    format      ascii;
    class       dictionary;
    object      fvSolution;
}
// * * * * * * * * * * * * * * * * * * * * * * * * * * * * * * * * * * * * * //

solvers
{
    h
    {
        solver          PCG;
        preconditioner  DIC;
        tolerance       1e-05;
        minIter			1;
        relTol          0.1;
    }

    hFinal
    {
        $h;
        tolerance       1e-05;
        minIter			1;
        relTol          0;
    }

    cellMotionUx
    {
        solver          PCG;
        preconditioner  DIC;
        tolerance       1e-08;
        relTol          0;
    }
}

PIMPLE
{
    correctPhi          yes;
    nOuterCorrectors    1;
    nCorrectors         1;
    nNonOrthogonalCorrectors 0;
    meshFluxCorrection  true;
}

SIMPLE
{
    nNonOrthogonalCorrectors 0;
	residualControl
	{
		h	1e-6;
		T	1e-6;
	}
}

relaxationFactors
{
    equations
    {
        "h.*"           0.7;
        T           0.7;
    }
}


// ************************************************************************* //
