FoamFile
{
    version     2.0;
    format      ascii;
    class       volScalarField;
    location    "/home/tomas/OpenFOAM/tomas-v2106/run/AP-1000/pin_meshWR_test/constant/fuel";
    object      volPower_or;
}

dimensions      [1 -1 -3 0 0 0 0];

internalField	nonuniform List<scalar>
16000
(
0.00802
0.00802
0.00802
0.00802
0.00852
0.00802
0.00802
0.00802
0.00852
0.00606
0.00802
0.00852
0.00802
0.00852
0.00802
0.00802
0.00802
0.00852
0.00606
0.00802
0.00852
0.00802
0.00852
0.00606
0.00606
0.00597
0.00802
0.00852
0.00802
0.00852
0.00802
0.00802
0.00802
0.00852
0.00606
0.00802
0.00852
0.00802
0.00852
0.00606
0.00606
0.00597
0.00802
0.00852
0.00802
0.00852
0.00429
0.00606
0.00597
0.00606
0.00597
0.00802
0.00852
0.00802
0.00852
0.00802
0.00802
0.00802
0.00852
0.00606
0.00802
0.00852
0.00802
0.00852
0.00606
0.00606
0.00597
0.00802
0.00852
0.00802
0.00852
0.00429
0.00606
0.00597
0.00606
0.00597
0.00802
0.00852
0.00802
0.00852
0.00429
0.00429
0.00441
0.00606
0.00597
0.00606
0.00597
0.00802
0.00852
0.00802
0.00852
0.01145
0.00802
0.00802
0.00852
0.00606
0.00802
0.00852
0.00802
0.00852
0.00606
0.00606
0.00597
0.00802
0.00852
0.00802
0.00852
0.00429
0.00606
0.00597
0.00606
0.00597
0.00802
0.00852
0.00802
0.00852
0.00429
0.00429
0.00441
0.00606
0.00597
0.00606
0.00597
0.00802
0.00852
0.00802
0.00852
0.00341
0.00429
0.00441
0.00429
0.00441
0.00606
0.00597
0.00606
0.00597
0.00802
0.00852
0.00802
0.00852
0.01145
0.01145
0.01145
0.01221
0.00606
0.00802
0.00852
0.00802
0.00852
0.00606
0.00606
0.00597
0.00802
0.00852
0.00802
0.00852
0.00429
0.00606
0.00597
0.00606
0.00597
0.00802
0.00852
0.00802
0.00852
0.00429
0.00429
0.00441
0.00606
0.00597
0.00606
0.00597
0.00802
0.00852
0.00802
0.00852
0.00341
0.00429
0.00441
0.00429
0.00441
0.00606
0.00597
0.00606
0.00597
0.00802
0.00852
0.00802
0.00852
0.00341
0.00341
0.00337
0.00429
0.00441
0.00429
0.00441
0.00606
0.00597
0.00606
0.00597
0.00802
0.00852
0.00802
0.00852
0.01145
0.01145
0.01145
0.01221
0.00801
0.01145
0.01221
0.01145
0.01221
0.00606
0.00606
0.00597
0.00802
0.00852
0.01145
0.00852
0.00429
0.00606
0.00597
0.00606
0.00597
0.00802
0.00852
0.00802
0.00852
0.00429
0.00429
0.00441
0.00606
0.00597
0.00606
0.00597
0.00802
0.00852
0.00802
0.00852
0.00341
0.00429
0.00441
0.00429
0.00441
0.00606
0.00597
0.00606
0.00597
0.00802
0.00852
0.00802
0.00852
0.00341
0.00341
0.00337
0.00429
0.00441
0.00429
0.00441
0.00606
0.00597
0.00606
0.00597
0.00802
0.00852
0.00802
0.00852
0.00293
0.00341
0.00337
0.00341
0.00337
0.00429
0.00441
0.00429
0.00441
0.00606
0.00597
0.00606
0.00597
0.00802
0.00852
0.00797
0.00852
0.01145
0.01221
0.01145
0.00801
0.01145
0.01221
0.01145
0.01221
0.00801
0.00801
0.00782
0.01145
0.01221
0.01145
0.01221
0.00429
0.00606
0.00597
0.00606
0.00597
0.01145
0.00852
0.01145
0.01221
0.00429
0.00429
0.00441
0.00606
0.00597
0.00606
0.00597
0.00802
0.00852
0.00802
0.00852
0.00341
0.00429
0.00441
0.00429
0.00441
0.00606
0.00597
0.00606
0.00597
0.00802
0.00852
0.00802
0.00852
0.00341
0.00341
0.00337
0.00429
0.00441
0.00429
0.00441
0.00606
0.00597
0.00606
0.00597
0.00802
0.00852
0.00802
0.00852
0.00293
0.00341
0.00337
0.00341
0.00337
0.00429
0.00441
0.00429
0.00441
0.00606
0.00597
0.00606
0.00597
0.00802
0.00852
0.00797
0.00852
0.00293
0.00293
0.00306
0.00341
0.00337
0.00341
0.00337
0.00429
0.00441
0.00429
0.00441
0.00606
0.00597
0.00606
0.00597
0.00797
0.00852
0.00797
0.00791
0.00782
0.01221
0.01145
0.01221
0.01145
0.01145
0.00801
0.00801
0.00782
0.01145
0.01221
0.01145
0.01221
0.00609
0.00801
0.00782
0.00801
0.00782
0.01145
0.01221
0.01145
0.01221
0.00429
0.00429
0.00441
0.00606
0.00597
0.00801
0.00597
0.01145
0.01221
0.00802
0.01221
0.00341
0.00429
0.00441
0.00429
0.00441
0.00606
0.00597
0.00606
0.00597
0.00802
0.00852
0.00802
0.00852
0.00341
0.00341
0.00337
0.00429
0.00441
0.00429
0.00441
0.00606
0.00597
0.00606
0.00597
0.00802
0.00852
0.00802
0.00852
0.00293
0.00341
0.00337
0.00341
0.00337
0.00429
0.00441
0.00429
0.00441
0.00606
0.00597
0.00606
0.00597
0.00802
0.00852
0.00797
0.00852
0.00293
0.00293
0.00306
0.00341
0.00337
0.00341
0.00337
0.00429
0.00441
0.00429
0.00441
0.00606
0.00597
0.00606
0.00597
0.00797
0.00852
0.00797
0.00791
0.00295
0.00293
0.00306
0.00293
0.00306
0.00341
0.00337
0.00341
0.00337
0.00429
0.00441
0.00429
0.00441
0.00606
0.00597
0.0057
0.00597
0.00797
0.00791
0.00797
0.00791
0.00801
0.00782
0.00801
0.01221
0.01145
0.01145
0.01221
0.01221
0.01145
0.01145
0.00609
0.00801
0.00782
0.00801
0.00782
0.01145
0.01221
0.01145
0.01221
0.00609
0.00609
0.00584
0.00801
0.00782
0.00801
0.00782
0.01145
0.01221
0.01145
0.01221
0.00341
0.00429
0.00441
0.00429
0.00441
0.00801
0.00597
0.00801
0.00782
0.00802
0.01221
0.00802
0.00852
0.00341
0.00341
0.00337
0.00429
0.00441
0.00429
0.00441
0.00606
0.00597
0.00606
0.00597
0.00802
0.00852
0.00802
0.00852
0.00293
0.00341
0.00337
0.00341
0.00337
0.00429
0.00441
0.00429
0.00441
0.00606
0.00597
0.00606
0.00597
0.00802
0.00852
0.00797
0.00852
0.00293
0.00293
0.00306
0.00341
0.00337
0.00341
0.00337
0.00429
0.00441
0.00429
0.00441
0.00606
0.00597
0.00606
0.00597
0.00797
0.00852
0.00797
0.00791
0.00295
0.00293
0.00306
0.00293
0.00306
0.00341
0.00337
0.00341
0.00337
0.00429
0.00441
0.00429
0.00441
0.00606
0.00597
0.0057
0.00597
0.00797
0.00791
0.00797
0.00791
0.00295
0.00295
0.00284
0.00293
0.00306
0.00293
0.00306
0.00341
0.00337
0.00341
0.00337
0.00429
0.00441
0.00429
0.00441
0.0057
0.00597
0.0057
0.00554
0.00797
0.00791
0.00797
0.00791
0.00609
0.00782
0.00801
0.00782
0.00801
0.00801
0.01221
0.01221
0.01145
0.01145
0.01221
0.01221
0.01145
0.01145
0.01145
0.00609
0.00609
0.00584
0.00801
0.00782
0.00801
0.00782
0.01145
0.01221
0.01145
0.01221
0.00474
0.00609
0.00584
0.00609
0.00584
0.00801
0.00782
0.00801
0.00782
0.01145
0.01221
0.01145
0.01221
0.00341
0.00341
0.00337
0.00429
0.00441
0.00609
0.00441
0.00801
0.00782
0.00606
0.00782
0.00802
0.00852
0.00802
0.00852
0.00293
0.00341
0.00337
0.00341
0.00337
0.00429
0.00441
0.00429
0.00441
0.00606
0.00597
0.00606
0.00597
0.00802
0.00852
0.00797
0.00852
0.00293
0.00293
0.00306
0.00341
0.00337
0.00341
0.00337
0.00429
0.00441
0.00429
0.00441
0.00606
0.00597
0.00606
0.00597
0.00797
0.00852
0.00797
0.00791
0.00295
0.00293
0.00306
0.00293
0.00306
0.00341
0.00337
0.00341
0.00337
0.00429
0.00441
0.00429
0.00441
0.00606
0.00597
0.0057
0.00597
0.00797
0.00791
0.00797
0.00791
0.00295
0.00295
0.00284
0.00293
0.00306
0.00293
0.00306
0.00341
0.00337
0.00341
0.00337
0.00429
0.00441
0.00429
0.00441
0.0057
0.00597
0.0057
0.00554
0.00797
0.00791
0.00797
0.00791
0.00254
0.00295
0.00284
0.00295
0.00284
0.00293
0.00306
0.00293
0.00306
0.00341
0.00337
0.00341
0.00337
0.00429
0.00441
0.00435
0.00441
0.0057
0.00554
0.0057
0.00554
0.00797
0.00791
0.00797
0.00791
0.00609
0.00584
0.00609
0.00782
0.00801
0.00801
0.00782
0.00782
0.00801
0.00801
0.01221
0.01221
0.01145
0.01145
0.01145
0.01221
0.01221
0.01221
0.01145
0.01145
0.01145
0.00474
0.00609
0.00584
0.00609
0.00584
0.00801
0.00782
0.00801
0.00782
0.01145
0.01221
0.01145
0.01221
0.00474
0.00474
0.0051
0.00609
0.00584
0.00609
0.00584
0.00801
0.00782
0.00801
0.00782
0.01145
0.01221
0.01145
0.01221
0.00293
0.00341
0.00337
0.00341
0.00337
0.00609
0.00441
0.00609
0.00584
0.00606
0.00782
0.00606
0.00597
0.00802
0.00852
0.00797
0.00852
0.00293
0.00293
0.00306
0.00341
0.00337
0.00341
0.00337
0.00429
0.00441
0.00429
0.00441
0.00606
0.00597
0.00606
0.00597
0.00797
0.00852
0.00797
0.00791
0.00295
0.00293
0.00306
0.00293
0.00306
0.00341
0.00337
0.00341
0.00337
0.00429
0.00441
0.00429
0.00441
0.00606
0.00597
0.0057
0.00597
0.00797
0.00791
0.00797
0.00791
0.00295
0.00295
0.00284
0.00293
0.00306
0.00293
0.00306
0.00341
0.00337
0.00341
0.00337
0.00429
0.00441
0.00429
0.00441
0.0057
0.00597
0.0057
0.00554
0.00797
0.00791
0.00797
0.00791
0.00254
0.00295
0.00284
0.00295
0.00284
0.00293
0.00306
0.00293
0.00306
0.00341
0.00337
0.00341
0.00337
0.00429
0.00441
0.00435
0.00441
0.0057
0.00554
0.0057
0.00554
0.00797
0.00791
0.00797
0.00791
0.00254
0.00254
0.00261
0.00295
0.00284
0.00295
0.00284
0.00293
0.00306
0.00293
0.00306
0.00341
0.00337
0.00341
0.00337
0.00435
0.00441
0.00435
0.0044
0.0057
0.00554
0.0057
0.00554
0.00797
0.00791
0.00797
0.00791
0.00474
0.00584
0.00609
0.00584
0.00609
0.00609
0.00782
0.00782
0.00801
0.00801
0.00782
0.00782
0.00801
0.00801
0.00801
0.01221
0.01221
0.01221
0.01145
0.01145
0.01145
0.01221
0.01221
0.01221
0.01221
0.01145
0.01145
0.01145
0.00474
0.00474
0.0051
0.00609
0.00584
0.00609
0.00584
0.00801
0.00782
0.00801
0.00782
0.01145
0.01221
0.01145
0.01221
0.0041
0.00474
0.0051
0.00474
0.0051
0.00609
0.00584
0.00609
0.00584
0.00801
0.00782
0.00801
0.00782
0.01145
0.01221
0.01163
0.01221
0.00293
0.00293
0.00306
0.00341
0.00337
0.00474
0.00337
0.00609
0.00584
0.00429
0.00584
0.00606
0.00597
0.00606
0.00597
0.00797
0.00852
0.00797
0.00791
0.00295
0.00293
0.00306
0.00293
0.00306
0.00341
0.00337
0.00341
0.00337
0.00429
0.00441
0.00429
0.00441
0.00606
0.00597
0.0057
0.00597
0.00797
0.00791
0.00797
0.00791
0.00295
0.00295
0.00284
0.00293
0.00306
0.00293
0.00306
0.00341
0.00337
0.00341
0.00337
0.00429
0.00441
0.00429
0.00441
0.0057
0.00597
0.0057
0.00554
0.00797
0.00791
0.00797
0.00791
0.00254
0.00295
0.00284
0.00295
0.00284
0.00293
0.00306
0.00293
0.00306
0.00341
0.00337
0.00341
0.00337
0.00429
0.00441
0.00435
0.00441
0.0057
0.00554
0.0057
0.00554
0.00797
0.00791
0.00797
0.00791
0.00254
0.00254
0.00261
0.00295
0.00284
0.00295
0.00284
0.00293
0.00306
0.00293
0.00306
0.00341
0.00337
0.00341
0.00337
0.00435
0.00441
0.00435
0.0044
0.0057
0.00554
0.0057
0.00554
0.00797
0.00791
0.00797
0.00791
0.00244
0.00254
0.00261
0.00254
0.00261
0.00295
0.00284
0.00295
0.00284
0.00293
0.00306
0.00293
0.00306
0.00341
0.00337
0.00345
0.00337
0.00435
0.0044
0.00435
0.0044
0.0057
0.00554
0.0057
0.00554
0.00797
0.00791
0.00797
0.00791
0.00474
0.0051
0.00474
0.00584
0.00609
0.00609
0.00584
0.00584
0.00609
0.00609
0.00782
0.00782
0.00801
0.00801
0.00801
0.00782
0.00782
0.00782
0.00801
0.00801
0.00801
0.01221
0.01221
0.01221
0.01221
0.01145
0.01145
0.01145
0.01221
0.01221
0.01221
0.01168
0.01145
0.01163
0.01163
0.01163
0.0041
0.00474
0.0051
0.00474
0.0051
0.00609
0.00584
0.00609
0.00584
0.00801
0.00782
0.00801
0.00782
0.01145
0.01221
0.01163
0.01221
0.0041
0.0041
0.00427
0.00474
0.0051
0.00474
0.0051
0.00609
0.00584
0.00609
0.00584
0.00801
0.00782
0.00801
0.00782
0.01163
0.01221
0.01163
0.01168
0.00295
0.00293
0.00306
0.00293
0.00306
0.00474
0.00337
0.00474
0.0051
0.00429
0.00584
0.00429
0.00441
0.00606
0.00597
0.0057
0.00597
0.00797
0.00791
0.00797
0.00791
0.00295
0.00295
0.00284
0.00293
0.00306
0.00293
0.00306
0.00341
0.00337
0.00341
0.00337
0.00429
0.00441
0.00429
0.00441
0.0057
0.00597
0.0057
0.00554
0.00797
0.00791
0.00797
0.00791
0.00254
0.00295
0.00284
0.00295
0.00284
0.00293
0.00306
0.00293
0.00306
0.00341
0.00337
0.00341
0.00337
0.00429
0.00441
0.00435
0.00441
0.0057
0.00554
0.0057
0.00554
0.00797
0.00791
0.00797
0.00791
0.00254
0.00254
0.00261
0.00295
0.00284
0.00295
0.00284
0.00293
0.00306
0.00293
0.00306
0.00341
0.00337
0.00341
0.00337
0.00435
0.00441
0.00435
0.0044
0.0057
0.00554
0.0057
0.00554
0.00797
0.00791
0.00797
0.00791
0.00244
0.00254
0.00261
0.00254
0.00261
0.00295
0.00284
0.00295
0.00284
0.00293
0.00306
0.00293
0.00306
0.00341
0.00337
0.00345
0.00337
0.00435
0.0044
0.00435
0.0044
0.0057
0.00554
0.0057
0.00554
0.00797
0.00791
0.00797
0.00791
0.00244
0.00244
0.00239
0.00254
0.00261
0.00254
0.00261
0.00295
0.00284
0.00295
0.00284
0.00293
0.00306
0.00293
0.00306
0.00345
0.00337
0.00345
0.00349
0.00435
0.0044
0.00435
0.0044
0.0057
0.00554
0.0057
0.00554
0.00797
0.00791
0.00797
0.00791
0.0041
0.0051
0.00474
0.0051
0.00474
0.00474
0.00584
0.00584
0.00609
0.00609
0.00584
0.00584
0.00609
0.00609
0.00609
0.00782
0.00782
0.00782
0.00801
0.00801
0.00801
0.00782
0.00782
0.00782
0.00782
0.00801
0.00801
0.00801
0.01221
0.01221
0.01221
0.01168
0.01145
0.01163
0.01163
0.01163
0.01168
0.01168
0.01168
0.01168
0.01163
0.01163
0.01163
0.01163
0.0041
0.0041
0.00427
0.00474
0.0051
0.00474
0.0051
0.00609
0.00584
0.00609
0.00584
0.00801
0.00782
0.00801
0.00782
0.01163
0.01221
0.01163
0.00401
0.0041
0.00427
0.0041
0.00427
0.00474
0.0051
0.00474
0.0051
0.00609
0.00584
0.00609
0.00584
0.00801
0.00782
0.00801
0.00782
0.01163
0.01168
0.01163
0.01168
0.00295
0.00295
0.00284
0.00293
0.00306
0.0041
0.00306
0.00474
0.0051
0.00341
0.0051
0.00429
0.00441
0.00429
0.00441
0.0057
0.00597
0.0057
0.00554
0.00797
0.00791
0.01163
0.00791
0.00254
0.00295
0.00284
0.00295
0.00284
0.00293
0.00306
0.00293
0.00306
0.00341
0.00337
0.00341
0.00337
0.00429
0.00441
0.00435
0.00441
0.0057
0.00554
0.0057
0.00554
0.00797
0.00791
0.00797
0.00791
0.00254
0.00254
0.00261
0.00295
0.00284
0.00295
0.00284
0.00293
0.00306
0.00293
0.00306
0.00341
0.00337
0.00341
0.00337
0.00435
0.00441
0.00435
0.0044
0.0057
0.00554
0.0057
0.00554
0.00797
0.00791
0.00797
0.00791
0.00244
0.00254
0.00261
0.00254
0.00261
0.00295
0.00284
0.00295
0.00284
0.00293
0.00306
0.00293
0.00306
0.00341
0.00337
0.00345
0.00337
0.00435
0.0044
0.00435
0.0044
0.0057
0.00554
0.0057
0.00554
0.00797
0.00791
0.00797
0.00791
0.00244
0.00244
0.00239
0.00254
0.00261
0.00254
0.00261
0.00295
0.00284
0.00295
0.00284
0.00293
0.00306
0.00293
0.00306
0.00345
0.00337
0.00345
0.00349
0.00435
0.0044
0.00435
0.0044
0.0057
0.00554
0.0057
0.00554
0.00797
0.00791
0.00797
0.00791
0.00226
0.00244
0.00239
0.00244
0.00239
0.00254
0.00261
0.00254
0.00261
0.00295
0.00284
0.00295
0.00284
0.00293
0.00306
0.00308
0.00306
0.00345
0.00349
0.00345
0.00349
0.00435
0.0044
0.00435
0.0044
0.0057
0.00554
0.0057
0.00554
0.00797
0.00791
0.00791
0.0041
0.00427
0.0041
0.0051
0.00474
0.00474
0.0051
0.0051
0.00474
0.00474
0.00584
0.00584
0.00609
0.00609
0.00609
0.00584
0.00584
0.00584
0.00609
0.00609
0.00609
0.00782
0.00782
0.00782
0.00782
0.00801
0.00801
0.00801
0.00782
0.00782
0.00782
0.00748
0.00801
0.00801
0.00801
0.00801
0.01168
0.01168
0.01168
0.01168
0.01163
0.01163
0.01163
0.01163
0.01168
0.01168
0.01168
0.01168
0.01163
0.01163
0.01163
0.00401
0.0041
0.00427
0.0041
0.00427
0.00474
0.0051
0.00474
0.0051
0.00609
0.00584
0.00609
0.00584
0.00801
0.00782
0.00801
0.00782
0.01163
0.01163
0.00401
0.00401
0.00406
0.0041
0.00427
0.0041
0.00427
0.00474
0.0051
0.00474
0.0051
0.00609
0.00584
0.00609
0.00584
0.00801
0.00782
0.00801
0.00748
0.01163
0.01168
0.01163
0.01168
0.00254
0.00295
0.00284
0.00295
0.00284
0.0041
0.00306
0.0041
0.00427
0.00341
0.0051
0.00341
0.00337
0.00429
0.00441
0.00435
0.00441
0.0057
0.00554
0.0057
0.00554
0.01163
0.00791
0.01163
0.01168
0.00254
0.00254
0.00261
0.00295
0.00284
0.00295
0.00284
0.00293
0.00306
0.00293
0.00306
0.00341
0.00337
0.00341
0.00337
0.00435
0.00441
0.00435
0.0044
0.0057
0.00554
0.0057
0.00554
0.00797
0.00791
0.00797
0.00791
0.00244
0.00254
0.00261
0.00254
0.00261
0.00295
0.00284
0.00295
0.00284
0.00293
0.00306
0.00293
0.00306
0.00341
0.00337
0.00345
0.00337
0.00435
0.0044
0.00435
0.0044
0.0057
0.00554
0.0057
0.00554
0.00797
0.00791
0.00797
0.00791
0.00244
0.00244
0.00239
0.00254
0.00261
0.00254
0.00261
0.00295
0.00284
0.00295
0.00284
0.00293
0.00306
0.00293
0.00306
0.00345
0.00337
0.00345
0.00349
0.00435
0.0044
0.00435
0.0044
0.0057
0.00554
0.0057
0.00554
0.00797
0.00791
0.00797
0.00791
0.00226
0.00244
0.00239
0.00244
0.00239
0.00254
0.00261
0.00254
0.00261
0.00295
0.00284
0.00295
0.00284
0.00293
0.00306
0.00308
0.00306
0.00345
0.00349
0.00345
0.00349
0.00435
0.0044
0.00435
0.0044
0.0057
0.00554
0.0057
0.00554
0.00797
0.00791
0.00791
0.00226
0.00226
0.00236
0.00244
0.00239
0.00244
0.00239
0.00254
0.00261
0.00254
0.00261
0.00295
0.00284
0.00295
0.00284
0.00308
0.00306
0.00308
0.00304
0.00345
0.00349
0.00345
0.00349
0.00435
0.0044
0.00435
0.0044
0.0057
0.00554
0.0057
0.00554
0.00791
0.00401
0.00427
0.0041
0.00427
0.0041
0.0041
0.0051
0.0051
0.00474
0.00474
0.0051
0.0051
0.00474
0.00474
0.00474
0.00584
0.00584
0.00584
0.00609
0.00609
0.00609
0.00584
0.00584
0.00584
0.00584
0.00609
0.00609
0.00609
0.00782
0.00782
0.00782
0.00748
0.00801
0.00801
0.00801
0.00801
0.00748
0.00748
0.00748
0.00748
0.00801
0.00801
0.00801
0.00801
0.01168
0.01168
0.01168
0.01168
0.01163
0.01163
0.01163
0.01168
0.01168
0.01168
0.01163
0.01163
0.01163
0.00401
0.00401
0.00406
0.0041
0.00427
0.0041
0.00427
0.00474
0.0051
0.00474
0.0051
0.00609
0.00584
0.00609
0.00584
0.00801
0.00782
0.00801
0.01163
0.01163
0.0036
0.00401
0.00406
0.00401
0.00406
0.0041
0.00427
0.0041
0.00427
0.00474
0.0051
0.00474
0.0051
0.00609
0.00584
0.00573
0.00584
0.00801
0.00748
0.00801
0.00748
0.01163
0.01168
0.01163
0.01168
0.00254
0.00254
0.00261
0.00295
0.00284
0.00401
0.00284
0.0041
0.00427
0.00293
0.00427
0.00341
0.00337
0.00341
0.00337
0.00435
0.00441
0.00435
0.0044
0.0057
0.00554
0.00801
0.00554
0.01163
0.01168
0.00797
0.01168
0.00244
0.00254
0.00261
0.00254
0.00261
0.00295
0.00284
0.00295
0.00284
0.00293
0.00306
0.00293
0.00306
0.00341
0.00337
0.00345
0.00337
0.00435
0.0044
0.00435
0.0044
0.0057
0.00554
0.0057
0.00554
0.00797
0.00791
0.00797
0.00791
0.00244
0.00244
0.00239
0.00254
0.00261
0.00254
0.00261
0.00295
0.00284
0.00295
0.00284
0.00293
0.00306
0.00293
0.00306
0.00345
0.00337
0.00345
0.00349
0.00435
0.0044
0.00435
0.0044
0.0057
0.00554
0.0057
0.00554
0.00797
0.00791
0.00797
0.00791
0.00226
0.00244
0.00239
0.00244
0.00239
0.00254
0.00261
0.00254
0.00261
0.00295
0.00284
0.00295
0.00284
0.00293
0.00306
0.00308
0.00306
0.00345
0.00349
0.00345
0.00349
0.00435
0.0044
0.00435
0.0044
0.0057
0.00554
0.0057
0.00554
0.00797
0.00791
0.00791
0.00226
0.00226
0.00236
0.00244
0.00239
0.00244
0.00239
0.00254
0.00261
0.00254
0.00261
0.00295
0.00284
0.00295
0.00284
0.00308
0.00306
0.00308
0.00304
0.00345
0.00349
0.00345
0.00349
0.00435
0.0044
0.00435
0.0044
0.0057
0.00554
0.0057
0.00554
0.00791
0.00213
0.00226
0.00236
0.00226
0.00236
0.00244
0.00239
0.00244
0.00239
0.00254
0.00261
0.00254
0.00261
0.00295
0.00284
0.0028
0.00284
0.00308
0.00304
0.00308
0.00304
0.00345
0.00349
0.00345
0.00349
0.00435
0.0044
0.00435
0.0044
0.0057
0.00554
0.00554
0.00401
0.00406
0.00401
0.00427
0.0041
0.0041
0.00427
0.00427
0.0041
0.0041
0.0051
0.0051
0.0051
0.00474
0.00474
0.0051
0.0051
0.0051
0.00474
0.00474
0.00474
0.00584
0.00584
0.00584
0.00584
0.00609
0.00609
0.00609
0.00584
0.00584
0.00584
0.00599
0.00609
0.00573
0.00573
0.00573
0.00748
0.00748
0.00748
0.00748
0.00801
0.00801
0.00801
0.00801
0.00748
0.00748
0.00748
0.00748
0.00801
0.00801
0.00801
0.01168
0.01168
0.01168
0.01168
0.01163
0.01163
0.01168
0.01168
0.01168
0.01163
0.01163
0.0036
0.00401
0.00406
0.00401
0.00406
0.0041
0.00427
0.0041
0.00427
0.00474
0.0051
0.00474
0.0051
0.00609
0.00584
0.00573
0.00584
0.00801
0.00801
0.01163
0.01163
0.0036
0.0036
0.00337
0.00401
0.00406
0.00401
0.00406
0.0041
0.00427
0.0041
0.00427
0.00474
0.0051
0.00474
0.0051
0.00573
0.00584
0.00573
0.00599
0.00801
0.00748
0.00801
0.00748
0.01163
0.01168
0.01163
0.01168
0.00244
0.00254
0.00261
0.00254
0.00261
0.00401
0.00284
0.00401
0.00406
0.00293
0.00427
0.00293
0.00306
0.00341
0.00337
0.00345
0.00337
0.00435
0.0044
0.00435
0.0044
0.00801
0.00554
0.00801
0.00748
0.00797
0.01168
0.00797
0.00791
0.00244
0.00244
0.00239
0.00254
0.00261
0.00254
0.00261
0.00295
0.00284
0.00295
0.00284
0.00293
0.00306
0.00293
0.00306
0.00345
0.00337
0.00345
0.00349
0.00435
0.0044
0.00435
0.0044
0.0057
0.00554
0.0057
0.00554
0.00797
0.00791
0.00797
0.00791
0.00226
0.00244
0.00239
0.00244
0.00239
0.00254
0.00261
0.00254
0.00261
0.00295
0.00284
0.00295
0.00284
0.00293
0.00306
0.00308
0.00306
0.00345
0.00349
0.00345
0.00349
0.00435
0.0044
0.00435
0.0044
0.0057
0.00554
0.0057
0.00554
0.00797
0.00791
0.00791
0.00226
0.00226
0.00236
0.00244
0.00239
0.00244
0.00239
0.00254
0.00261
0.00254
0.00261
0.00295
0.00284
0.00295
0.00284
0.00308
0.00306
0.00308
0.00304
0.00345
0.00349
0.00345
0.00349
0.00435
0.0044
0.00435
0.0044
0.0057
0.00554
0.0057
0.00554
0.00791
0.00213
0.00226
0.00236
0.00226
0.00236
0.00244
0.00239
0.00244
0.00239
0.00254
0.00261
0.00254
0.00261
0.00295
0.00284
0.0028
0.00284
0.00308
0.00304
0.00308
0.00304
0.00345
0.00349
0.00345
0.00349
0.00435
0.0044
0.00435
0.0044
0.0057
0.00554
0.00554
0.00213
0.00213
0.00209
0.00226
0.00236
0.00226
0.00236
0.00244
0.00239
0.00244
0.00239
0.00254
0.00261
0.00254
0.00261
0.0028
0.00284
0.0028
0.00278
0.00308
0.00304
0.00308
0.00304
0.00345
0.00349
0.00345
0.00349
0.00435
0.0044
0.00435
0.0044
0.00554
0.0036
0.00406
0.00401
0.00406
0.00401
0.00401
0.00427
0.00427
0.0041
0.0041
0.00427
0.00427
0.0041
0.0041
0.0041
0.0051
0.0051
0.0051
0.00474
0.00474
0.00474
0.0051
0.0051
0.0051
0.0051
0.00474
0.00474
0.00474
0.00584
0.00584
0.00584
0.00599
0.00609
0.00573
0.00573
0.00573
0.00599
0.00599
0.00599
0.00599
0.00573
0.00573
0.00573
0.00573
0.00748
0.00748
0.00748
0.00748
0.00801
0.00801
0.00801
0.00748
0.00748
0.00748
0.00748
0.00801
0.00801
0.01168
0.01168
0.01168
0.01163
0.01163
0.01168
0.01168
0.01168
0.01163
0.0036
0.0036
0.00337
0.00401
0.00406
0.00401
0.00406
0.0041
0.00427
0.0041
0.00427
0.00474
0.0051
0.00474
0.0051
0.00573
0.00584
0.00573
0.00801
0.00801
0.01163
0.01163
0.00341
0.0036
0.00337
0.0036
0.00337
0.00401
0.00406
0.00401
0.00406
0.0041
0.00427
0.0041
0.00427
0.00474
0.0051
0.00472
0.0051
0.00573
0.00599
0.00573
0.00599
0.00801
0.00748
0.00801
0.00748
0.01163
0.01168
0.01163
0.01168
0.00244
0.00244
0.00239
0.00254
0.00261
0.0036
0.00261
0.00401
0.00406
0.00295
0.00406
0.00293
0.00306
0.00293
0.00306
0.00345
0.00337
0.00345
0.00349
0.00435
0.0044
0.00573
0.0044
0.00801
0.00748
0.0057
0.00748
0.00797
0.00791
0.00797
0.00791
0.00226
0.00244
0.00239
0.00244
0.00239
0.00254
0.00261
0.00254
0.00261
0.00295
0.00284
0.00295
0.00284
0.00293
0.00306
0.00308
0.00306
0.00345
0.00349
0.00345
0.00349
0.00435
0.0044
0.00435
0.0044
0.0057
0.00554
0.0057
0.00554
0.00797
0.00791
0.00791
0.00226
0.00226
0.00236
0.00244
0.00239
0.00244
0.00239
0.00254
0.00261
0.00254
0.00261
0.00295
0.00284
0.00295
0.00284
0.00308
0.00306
0.00308
0.00304
0.00345
0.00349
0.00345
0.00349
0.00435
0.0044
0.00435
0.0044
0.0057
0.00554
0.0057
0.00554
0.00791
0.00213
0.00226
0.00236
0.00226
0.00236
0.00244
0.00239
0.00244
0.00239
0.00254
0.00261
0.00254
0.00261
0.00295
0.00284
0.0028
0.00284
0.00308
0.00304
0.00308
0.00304
0.00345
0.00349
0.00345
0.00349
0.00435
0.0044
0.00435
0.0044
0.0057
0.00554
0.00554
0.00213
0.00213
0.00209
0.00226
0.00236
0.00226
0.00236
0.00244
0.00239
0.00244
0.00239
0.00254
0.00261
0.00254
0.00261
0.0028
0.00284
0.0028
0.00278
0.00308
0.00304
0.00308
0.00304
0.00345
0.00349
0.00345
0.00349
0.00435
0.0044
0.00435
0.0044
0.00554
0.00238
0.00213
0.00209
0.00213
0.00209
0.00226
0.00236
0.00226
0.00236
0.00244
0.00239
0.00244
0.00239
0.00254
0.00261
0.00254
0.00261
0.0028
0.00278
0.0028
0.00278
0.00308
0.00304
0.00308
0.00304
0.00345
0.00349
0.00345
0.00349
0.00435
0.0044
0.0044
0.0036
0.00337
0.0036
0.00406
0.00401
0.00401
0.00406
0.00406
0.00401
0.00401
0.00427
0.00427
0.0041
0.0041
0.0041
0.00427
0.00427
0.00427
0.0041
0.0041
0.0041
0.0051
0.0051
0.0051
0.0051
0.00474
0.00474
0.00474
0.0051
0.0051
0.0051
0.00473
0.00474
0.00472
0.00472
0.00472
0.00599
0.00599
0.00599
0.00599
0.00573
0.00573
0.00573
0.00573
0.00599
0.00599
0.00599
0.00599
0.00573
0.00573
0.00573
0.00748
0.00748
0.00748
0.00748
0.00801
0.00801
0.00748
0.00748
0.00748
0.00801
0.00801
0.01168
0.01168
0.01168
0.01163
0.01168
0.01168
0.01163
0.00341
0.0036
0.00337
0.0036
0.00337
0.00401
0.00406
0.00401
0.00406
0.0041
0.00427
0.0041
0.00427
0.00474
0.0051
0.00472
0.0051
0.00573
0.00573
0.00801
0.00801
0.01163
0.01163
0.00341
0.00341
0.00333
0.0036
0.00337
0.0036
0.00337
0.00401
0.00406
0.00401
0.00406
0.0041
0.00427
0.0041
0.00427
0.00472
0.0051
0.00472
0.00473
0.00573
0.00599
0.00573
0.00599
0.00801
0.00748
0.00801
0.00748
0.01163
0.01168
0.01163
0.01168
0.00226
0.00244
0.00239
0.00244
0.00239
0.0036
0.00261
0.0036
0.00337
0.00295
0.00406
0.00295
0.00284
0.00293
0.00306
0.00308
0.00306
0.00345
0.00349
0.00345
0.00349
0.00573
0.0044
0.00573
0.00599
0.0057
0.00748
0.0057
0.00554
0.00797
0.00791
0.00791
0.00226
0.00226
0.00236
0.00244
0.00239
0.00244
0.00239
0.00254
0.00261
0.00254
0.00261
0.00295
0.00284
0.00295
0.00284
0.00308
0.00306
0.00308
0.00304
0.00345
0.00349
0.00345
0.00349
0.00435
0.0044
0.00435
0.0044
0.0057
0.00554
0.0057
0.00554
0.00791
0.00213
0.00226
0.00236
0.00226
0.00236
0.00244
0.00239
0.00244
0.00239
0.00254
0.00261
0.00254
0.00261
0.00295
0.00284
0.0028
0.00284
0.00308
0.00304
0.00308
0.00304
0.00345
0.00349
0.00345
0.00349
0.00435
0.0044
0.00435
0.0044
0.0057
0.00554
0.00554
0.00213
0.00213
0.00209
0.00226
0.00236
0.00226
0.00236
0.00244
0.00239
0.00244
0.00239
0.00254
0.00261
0.00254
0.00261
0.0028
0.00284
0.0028
0.00278
0.00308
0.00304
0.00308
0.00304
0.00345
0.00349
0.00345
0.00349
0.00435
0.0044
0.00435
0.0044
0.00554
0.00238
0.00213
0.00209
0.00213
0.00209
0.00226
0.00236
0.00226
0.00236
0.00244
0.00239
0.00244
0.00239
0.00254
0.00261
0.00254
0.00261
0.0028
0.00278
0.0028
0.00278
0.00308
0.00304
0.00308
0.00304
0.00345
0.00349
0.00345
0.00349
0.00435
0.0044
0.0044
0.00238
0.00238
0.0022
0.00213
0.00209
0.00213
0.00209
0.00226
0.00236
0.00226
0.00236
0.00244
0.00239
0.00244
0.00239
0.00254
0.00261
0.00254
0.00255
0.0028
0.00278
0.0028
0.00278
0.00308
0.00304
0.00308
0.00304
0.00345
0.00349
0.00345
0.00349
0.0044
0.00333
0.00337
0.0036
0.00337
0.0036
0.0036
0.00406
0.00406
0.00401
0.00401
0.00406
0.00406
0.00401
0.00401
0.00401
0.00427
0.00427
0.00427
0.0041
0.0041
0.0041
0.00427
0.00427
0.00427
0.00427
0.0041
0.0041
0.0041
0.0051
0.0051
0.0051
0.00473
0.00474
0.00472
0.00472
0.00472
0.00473
0.00473
0.00473
0.00473
0.00472
0.00472
0.00472
0.00472
0.00599
0.00599
0.00599
0.00599
0.00573
0.00573
0.00573
0.00599
0.00599
0.00599
0.00599
0.00573
0.00573
0.00748
0.00748
0.00748
0.00801
0.00801
0.00748
0.00748
0.00748
0.00801
0.01168
0.01168
0.01163
0.01168
0.01168
0.00341
0.00341
0.00333
0.0036
0.00337
0.0036
0.00337
0.00401
0.00406
0.00401
0.00406
0.0041
0.00427
0.0041
0.00427
0.00472
0.0051
0.00472
0.00573
0.00573
0.00801
0.00801
0.01163
0.01163
0.00318
0.00341
0.00333
0.00341
0.00333
0.0036
0.00337
0.0036
0.00337
0.00401
0.00406
0.00401
0.00406
0.0041
0.00427
0.00413
0.00427
0.00472
0.00473
0.00472
0.00473
0.00573
0.00599
0.00573
0.00599
0.00801
0.00748
0.00801
0.00748
0.01163
0.01168
0.01168
0.00226
0.00226
0.00236
0.00244
0.00239
0.00341
0.00239
0.0036
0.00337
0.00254
0.00337
0.00295
0.00284
0.00295
0.00284
0.00308
0.00306
0.00308
0.00304
0.00345
0.00349
0.00472
0.00349
0.00573
0.00599
0.00435
0.00599
0.0057
0.00554
0.0057
0.00554
0.00791
0.00213
0.00226
0.00236
0.00226
0.00236
0.00244
0.00239
0.00244
0.00239
0.00254
0.00261
0.00254
0.00261
0.00295
0.00284
0.0028
0.00284
0.00308
0.00304
0.00308
0.00304
0.00345
0.00349
0.00345
0.00349
0.00435
0.0044
0.00435
0.0044
0.0057
0.00554
0.00554
0.00213
0.00213
0.00209
0.00226
0.00236
0.00226
0.00236
0.00244
0.00239
0.00244
0.00239
0.00254
0.00261
0.00254
0.00261
0.0028
0.00284
0.0028
0.00278
0.00308
0.00304
0.00308
0.00304
0.00345
0.00349
0.00345
0.00349
0.00435
0.0044
0.00435
0.0044
0.00554
0.00238
0.00213
0.00209
0.00213
0.00209
0.00226
0.00236
0.00226
0.00236
0.00244
0.00239
0.00244
0.00239
0.00254
0.00261
0.00254
0.00261
0.0028
0.00278
0.0028
0.00278
0.00308
0.00304
0.00308
0.00304
0.00345
0.00349
0.00345
0.00349
0.00435
0.0044
0.0044
0.00238
0.00238
0.0022
0.00213
0.00209
0.00213
0.00209
0.00226
0.00236
0.00226
0.00236
0.00244
0.00239
0.00244
0.00239
0.00254
0.00261
0.00254
0.00255
0.0028
0.00278
0.0028
0.00278
0.00308
0.00304
0.00308
0.00304
0.00345
0.00349
0.00345
0.00349
0.0044
0.00256
0.00238
0.0022
0.00238
0.0022
0.00213
0.00209
0.00213
0.00209
0.00226
0.00236
0.00226
0.00236
0.00244
0.00239
0.00245
0.00239
0.00254
0.00255
0.00254
0.00255
0.0028
0.00278
0.0028
0.00278
0.00308
0.00304
0.00308
0.00304
0.00345
0.00349
0.00349
0.00341
0.00333
0.00341
0.00337
0.0036
0.0036
0.00337
0.00337
0.0036
0.0036
0.00406
0.00406
0.00406
0.00401
0.00401
0.00406
0.00406
0.00406
0.00401
0.00401
0.00401
0.00427
0.00427
0.00427
0.00427
0.0041
0.0041
0.0041
0.00427
0.00427
0.00427
0.00435
0.0041
0.00413
0.00413
0.00413
0.00473
0.00473
0.00473
0.00473
0.00472
0.00472
0.00472
0.00472
0.00473
0.00473
0.00473
0.00473
0.00472
0.00472
0.00472
0.00599
0.00599
0.00599
0.00599
0.00573
0.00573
0.00599
0.00599
0.00599
0.00573
0.00573
0.00748
0.00748
0.00748
0.00801
0.00748
0.00748
0.00801
0.01168
0.01168
0.01168
0.00318
0.00341
0.00333
0.00341
0.00333
0.0036
0.00337
0.0036
0.00337
0.00401
0.00406
0.00401
0.00406
0.0041
0.00427
0.00413
0.00427
0.00472
0.00472
0.00573
0.00573
0.00801
0.00801
0.01163
0.00318
0.00318
0.0033
0.00341
0.00333
0.00341
0.00333
0.0036
0.00337
0.0036
0.00337
0.00401
0.00406
0.00401
0.00406
0.00413
0.00427
0.00413
0.00435
0.00472
0.00473
0.00472
0.00473
0.00573
0.00599
0.00573
0.00599
0.00801
0.00748
0.00801
0.00748
0.01168
0.00213
0.00226
0.00236
0.00226
0.00236
0.00341
0.00239
0.00341
0.00333
0.00254
0.00337
0.00254
0.00261
0.00295
0.00284
0.0028
0.00284
0.00308
0.00304
0.00308
0.00304
0.00472
0.00349
0.00472
0.00473
0.00435
0.00599
0.00435
0.0044
0.0057
0.00554
0.00554
0.00213
0.00213
0.00209
0.00226
0.00236
0.00226
0.00236
0.00244
0.00239
0.00244
0.00239
0.00254
0.00261
0.00254
0.00261
0.0028
0.00284
0.0028
0.00278
0.00308
0.00304
0.00308
0.00304
0.00345
0.00349
0.00345
0.00349
0.00435
0.0044
0.00435
0.0044
0.00554
0.00238
0.00213
0.00209
0.00213
0.00209
0.00226
0.00236
0.00226
0.00236
0.00244
0.00239
0.00244
0.00239
0.00254
0.00261
0.00254
0.00261
0.0028
0.00278
0.0028
0.00278
0.00308
0.00304
0.00308
0.00304
0.00345
0.00349
0.00345
0.00349
0.00435
0.0044
0.0044
0.00238
0.00238
0.0022
0.00213
0.00209
0.00213
0.00209
0.00226
0.00236
0.00226
0.00236
0.00244
0.00239
0.00244
0.00239
0.00254
0.00261
0.00254
0.00255
0.0028
0.00278
0.0028
0.00278
0.00308
0.00304
0.00308
0.00304
0.00345
0.00349
0.00345
0.00349
0.0044
0.00256
0.00238
0.0022
0.00238
0.0022
0.00213
0.00209
0.00213
0.00209
0.00226
0.00236
0.00226
0.00236
0.00244
0.00239
0.00245
0.00239
0.00254
0.00255
0.00254
0.00255
0.0028
0.00278
0.0028
0.00278
0.00308
0.00304
0.00308
0.00304
0.00345
0.00349
0.00349
0.00256
0.00256
0.00253
0.00238
0.0022
0.00238
0.0022
0.00213
0.00209
0.00213
0.00209
0.00226
0.00236
0.00226
0.00236
0.00245
0.00239