FoamFile
{
    version     2.0;
    format      ascii;
    class       volScalarField;
    location    "/home/tomas/OpenFOAM/tomas-v2106/run/AP-1000/pin_R2A4Ax25/constant/fuel";
    object      volPower;
}

dimensions      [1 -1 -3 0 0 0 0];

internalField   nonuniform List<scalar>
16000
(
 3.26662E+07
 3.26662E+07
 3.26662E+07
 3.26662E+07
 3.24066E+07
 3.26662E+07
 3.26662E+07
 3.26662E+07
 3.24066E+07
 1.07063E+08
 3.26662E+07
 3.24066E+07
 3.26662E+07
 3.24066E+07
 3.26662E+07
 3.26662E+07
 3.26662E+07
 3.24066E+07
 1.07063E+08
 3.26662E+07
 3.24066E+07
 3.26662E+07
 3.24066E+07
 1.07063E+08
 1.07063E+08
 1.07744E+08
 3.26662E+07
 3.24066E+07
 3.26662E+07
 3.24066E+07
 3.26662E+07
 3.26662E+07
 3.26662E+07
 3.24066E+07
 1.07063E+08
 3.26662E+07
 3.24066E+07
 3.26662E+07
 3.24066E+07
 1.07063E+08
 1.07063E+08
 1.07744E+08
 3.26662E+07
 3.24066E+07
 3.26662E+07
 3.24066E+07
 1.91912E+08
 1.07063E+08
 1.07744E+08
 1.07063E+08
 1.07744E+08
 3.26662E+07
 3.24066E+07
 3.26662E+07
 3.24066E+07
 3.26662E+07
 3.26662E+07
 3.26662E+07
 3.24066E+07
 1.07063E+08
 3.26662E+07
 3.24066E+07
 3.26662E+07
 3.24066E+07
 1.07063E+08
 1.07063E+08
 1.07744E+08
 3.26662E+07
 3.24066E+07
 3.26662E+07
 3.24066E+07
 1.91912E+08
 1.07063E+08
 1.07744E+08
 1.07063E+08
 1.07744E+08
 3.26662E+07
 3.24066E+07
 3.26662E+07
 3.24066E+07
 1.91912E+08
 1.91912E+08
 1.91434E+08
 1.07063E+08
 1.07744E+08
 1.07063E+08
 1.07744E+08
 3.26662E+07
 3.24066E+07
 3.26662E+07
 3.24066E+07
 3.11719E+07
 3.26662E+07
 3.26662E+07
 3.24066E+07
 1.07063E+08
 3.26662E+07
 3.24066E+07
 3.26662E+07
 3.24066E+07
 1.07063E+08
 1.07063E+08
 1.07744E+08
 3.26662E+07
 3.24066E+07
 3.26662E+07
 3.24066E+07
 1.91912E+08
 1.07063E+08
 1.07744E+08
 1.07063E+08
 1.07744E+08
 3.26662E+07
 3.24066E+07
 3.26662E+07
 3.24066E+07
 1.91912E+08
 1.91912E+08
 1.91434E+08
 1.07063E+08
 1.07744E+08
 1.07063E+08
 1.07744E+08
 3.26662E+07
 3.24066E+07
 3.26662E+07
 3.24066E+07
 2.79909E+08
 1.91912E+08
 1.91434E+08
 1.91912E+08
 1.91434E+08
 1.07063E+08
 1.07744E+08
 1.07063E+08
 1.07744E+08
 3.26662E+07
 3.24066E+07
 3.26662E+07
 3.24066E+07
 3.11719E+07
 3.11719E+07
 3.11719E+07
 3.09359E+07
 1.07063E+08
 3.26662E+07
 3.24066E+07
 3.26662E+07
 3.24066E+07
 1.07063E+08
 1.07063E+08
 1.07744E+08
 3.26662E+07
 3.24066E+07
 3.26662E+07
 3.24066E+07
 1.91912E+08
 1.07063E+08
 1.07744E+08
 1.07063E+08
 1.07744E+08
 3.26662E+07
 3.24066E+07
 3.26662E+07
 3.24066E+07
 1.91912E+08
 1.91912E+08
 1.91434E+08
 1.07063E+08
 1.07744E+08
 1.07063E+08
 1.07744E+08
 3.26662E+07
 3.24066E+07
 3.26662E+07
 3.24066E+07
 2.79909E+08
 1.91912E+08
 1.91434E+08
 1.91912E+08
 1.91434E+08
 1.07063E+08
 1.07744E+08
 1.07063E+08
 1.07744E+08
 3.26662E+07
 3.24066E+07
 3.26662E+07
 3.24066E+07
 2.79909E+08
 2.79909E+08
 2.79257E+08
 1.91912E+08
 1.91434E+08
 1.91912E+08
 1.91434E+08
 1.07063E+08
 1.07744E+08
 1.07063E+08
 1.07744E+08
 3.26662E+07
 3.24066E+07
 3.26662E+07
 3.24066E+07
 3.11719E+07
 3.11719E+07
 3.11719E+07
 3.09359E+07
 1.01639E+08
 3.11719E+07
 3.09359E+07
 3.11719E+07
 3.09359E+07
 1.07063E+08
 1.07063E+08
 1.07744E+08
 3.26662E+07
 3.24066E+07
 3.11719E+07
 3.24066E+07
 1.91912E+08
 1.07063E+08
 1.07744E+08
 1.07063E+08
 1.07744E+08
 3.26662E+07
 3.24066E+07
 3.26662E+07
 3.24066E+07
 1.91912E+08
 1.91912E+08
 1.91434E+08
 1.07063E+08
 1.07744E+08
 1.07063E+08
 1.07744E+08
 3.26662E+07
 3.24066E+07
 3.26662E+07
 3.24066E+07
 2.79909E+08
 1.91912E+08
 1.91434E+08
 1.91912E+08
 1.91434E+08
 1.07063E+08
 1.07744E+08
 1.07063E+08
 1.07744E+08
 3.26662E+07
 3.24066E+07
 3.26662E+07
 3.24066E+07
 2.79909E+08
 2.79909E+08
 2.79257E+08
 1.91912E+08
 1.91434E+08
 1.91912E+08
 1.91434E+08
 1.07063E+08
 1.07744E+08
 1.07063E+08
 1.07744E+08
 3.26662E+07
 3.24066E+07
 3.26662E+07
 3.24066E+07
 3.46974E+08
 2.79909E+08
 2.79257E+08
 2.79909E+08
 2.79257E+08
 1.91912E+08
 1.91434E+08
 1.91912E+08
 1.91434E+08
 1.07063E+08
 1.07744E+08
 1.07063E+08
 1.07744E+08
 3.26662E+07
 3.24066E+07
 3.25107E+07
 3.24066E+07
 3.11719E+07
 3.09359E+07
 3.11719E+07
 1.01639E+08
 3.11719E+07
 3.09359E+07
 3.11719E+07
 3.09359E+07
 1.01639E+08
 1.01639E+08
 1.01716E+08
 3.11719E+07
 3.09359E+07
 3.11719E+07
 3.09359E+07
 1.91912E+08
 1.07063E+08
 1.07744E+08
 1.07063E+08
 1.07744E+08
 3.11719E+07
 3.24066E+07
 3.11719E+07
 3.09359E+07
 1.91912E+08
 1.91912E+08
 1.91434E+08
 1.07063E+08
 1.07744E+08
 1.07063E+08
 1.07744E+08
 3.26662E+07
 3.24066E+07
 3.26662E+07
 3.24066E+07
 2.79909E+08
 1.91912E+08
 1.91434E+08
 1.91912E+08
 1.91434E+08
 1.07063E+08
 1.07744E+08
 1.07063E+08
 1.07744E+08
 3.26662E+07
 3.24066E+07
 3.26662E+07
 3.24066E+07
 2.79909E+08
 2.79909E+08
 2.79257E+08
 1.91912E+08
 1.91434E+08
 1.91912E+08
 1.91434E+08
 1.07063E+08
 1.07744E+08
 1.07063E+08
 1.07744E+08
 3.26662E+07
 3.24066E+07
 3.26662E+07
 3.24066E+07
 3.46974E+08
 2.79909E+08
 2.79257E+08
 2.79909E+08
 2.79257E+08
 1.91912E+08
 1.91434E+08
 1.91912E+08
 1.91434E+08
 1.07063E+08
 1.07744E+08
 1.07063E+08
 1.07744E+08
 3.26662E+07
 3.24066E+07
 3.25107E+07
 3.24066E+07
 3.46974E+08
 3.46974E+08
 3.45454E+08
 2.79909E+08
 2.79257E+08
 2.79909E+08
 2.79257E+08
 1.91912E+08
 1.91434E+08
 1.91912E+08
 1.91434E+08
 1.07063E+08
 1.07744E+08
 1.07063E+08
 1.07744E+08
 3.25107E+07
 3.24066E+07
 3.25107E+07
 3.25382E+07
 1.01716E+08
 3.09359E+07
 3.11719E+07
 3.09359E+07
 3.11719E+07
 3.11719E+07
 1.01639E+08
 1.01639E+08
 1.01716E+08
 3.11719E+07
 3.09359E+07
 3.11719E+07
 3.09359E+07
 1.80953E+08
 1.01639E+08
 1.01716E+08
 1.01639E+08
 1.01716E+08
 3.11719E+07
 3.09359E+07
 3.11719E+07
 3.09359E+07
 1.91912E+08
 1.91912E+08
 1.91434E+08
 1.07063E+08
 1.07744E+08
 1.01639E+08
 1.07744E+08
 3.11719E+07
 3.09359E+07
 3.26662E+07
 3.09359E+07
 2.79909E+08
 1.91912E+08
 1.91434E+08
 1.91912E+08
 1.91434E+08
 1.07063E+08
 1.07744E+08
 1.07063E+08
 1.07744E+08
 3.26662E+07
 3.24066E+07
 3.26662E+07
 3.24066E+07
 2.79909E+08
 2.79909E+08
 2.79257E+08
 1.91912E+08
 1.91434E+08
 1.91912E+08
 1.91434E+08
 1.07063E+08
 1.07744E+08
 1.07063E+08
 1.07744E+08
 3.26662E+07
 3.24066E+07
 3.26662E+07
 3.24066E+07
 3.46974E+08
 2.79909E+08
 2.79257E+08
 2.79909E+08
 2.79257E+08
 1.91912E+08
 1.91434E+08
 1.91912E+08
 1.91434E+08
 1.07063E+08
 1.07744E+08
 1.07063E+08
 1.07744E+08
 3.26662E+07
 3.24066E+07
 3.25107E+07
 3.24066E+07
 3.46974E+08
 3.46974E+08
 3.45454E+08
 2.79909E+08
 2.79257E+08
 2.79909E+08
 2.79257E+08
 1.91912E+08
 1.91434E+08
 1.91912E+08
 1.91434E+08
 1.07063E+08
 1.07744E+08
 1.07063E+08
 1.07744E+08
 3.25107E+07
 3.24066E+07
 3.25107E+07
 3.25382E+07
 3.94615E+08
 3.46974E+08
 3.45454E+08
 3.46974E+08
 3.45454E+08
 2.79909E+08
 2.79257E+08
 2.79909E+08
 2.79257E+08
 1.91912E+08
 1.91434E+08
 1.91912E+08
 1.91434E+08
 1.07063E+08
 1.07744E+08
 1.07361E+08
 1.07744E+08
 3.25107E+07
 3.25382E+07
 3.25107E+07
 3.25382E+07
 1.01639E+08
 1.01716E+08
 1.01639E+08
 3.09359E+07
 3.11719E+07
 3.11719E+07
 3.09359E+07
 3.09359E+07
 3.11719E+07
 3.11719E+07
 1.80953E+08
 1.01639E+08
 1.01716E+08
 1.01639E+08
 1.01716E+08
 3.11719E+07
 3.09359E+07
 3.11719E+07
 3.09359E+07
 1.80953E+08
 1.80953E+08
 1.81687E+08
 1.01639E+08
 1.01716E+08
 1.01639E+08
 1.01716E+08
 3.11719E+07
 3.09359E+07
 3.11719E+07
 3.09359E+07
 2.79909E+08
 1.91912E+08
 1.91434E+08
 1.91912E+08
 1.91434E+08
 1.01639E+08
 1.07744E+08
 1.01639E+08
 1.01716E+08
 3.26662E+07
 3.09359E+07
 3.26662E+07
 3.24066E+07
 2.79909E+08
 2.79909E+08
 2.79257E+08
 1.91912E+08
 1.91434E+08
 1.91912E+08
 1.91434E+08
 1.07063E+08
 1.07744E+08
 1.07063E+08
 1.07744E+08
 3.26662E+07
 3.24066E+07
 3.26662E+07
 3.24066E+07
 3.46974E+08
 2.79909E+08
 2.79257E+08
 2.79909E+08
 2.79257E+08
 1.91912E+08
 1.91434E+08
 1.91912E+08
 1.91434E+08
 1.07063E+08
 1.07744E+08
 1.07063E+08
 1.07744E+08
 3.26662E+07
 3.24066E+07
 3.25107E+07
 3.24066E+07
 3.46974E+08
 3.46974E+08
 3.45454E+08
 2.79909E+08
 2.79257E+08
 2.79909E+08
 2.79257E+08
 1.91912E+08
 1.91434E+08
 1.91912E+08
 1.91434E+08
 1.07063E+08
 1.07744E+08
 1.07063E+08
 1.07744E+08
 3.25107E+07
 3.24066E+07
 3.25107E+07
 3.25382E+07
 3.94615E+08
 3.46974E+08
 3.45454E+08
 3.46974E+08
 3.45454E+08
 2.79909E+08
 2.79257E+08
 2.79909E+08
 2.79257E+08
 1.91912E+08
 1.91434E+08
 1.91912E+08
 1.91434E+08
 1.07063E+08
 1.07744E+08
 1.07361E+08
 1.07744E+08
 3.25107E+07
 3.25382E+07
 3.25107E+07
 3.25382E+07
 3.94615E+08
 3.94615E+08
 3.96056E+08
 3.46974E+08
 3.45454E+08
 3.46974E+08
 3.45454E+08
 2.79909E+08
 2.79257E+08
 2.79909E+08
 2.79257E+08
 1.91912E+08
 1.91434E+08
 1.91912E+08
 1.91434E+08
 1.07361E+08
 1.07744E+08
 1.07361E+08
 1.07267E+08
 3.25107E+07
 3.25382E+07
 3.25107E+07
 3.25382E+07
 1.80953E+08
 1.01716E+08
 1.01639E+08
 1.01716E+08
 1.01639E+08
 1.01639E+08
 3.09359E+07
 3.09359E+07
 3.11719E+07
 3.11719E+07
 3.09359E+07
 3.09359E+07
 3.11719E+07
 3.11719E+07
 3.11719E+07
 1.80953E+08
 1.80953E+08
 1.81687E+08
 1.01639E+08
 1.01716E+08
 1.01639E+08
 1.01716E+08
 3.11719E+07
 3.09359E+07
 3.11719E+07
 3.09359E+07
 2.61446E+08
 1.80953E+08
 1.81687E+08
 1.80953E+08
 1.81687E+08
 1.01639E+08
 1.01716E+08
 1.01639E+08
 1.01716E+08
 3.11719E+07
 3.09359E+07
 3.11719E+07
 3.09359E+07
 2.79909E+08
 2.79909E+08
 2.79257E+08
 1.91912E+08
 1.91434E+08
 1.80953E+08
 1.91434E+08
 1.01639E+08
 1.01716E+08
 1.07063E+08
 1.01716E+08
 3.26662E+07
 3.24066E+07
 3.26662E+07
 3.24066E+07
 3.46974E+08
 2.79909E+08
 2.79257E+08
 2.79909E+08
 2.79257E+08
 1.91912E+08
 1.91434E+08
 1.91912E+08
 1.91434E+08
 1.07063E+08
 1.07744E+08
 1.07063E+08
 1.07744E+08
 3.26662E+07
 3.24066E+07
 3.25107E+07
 3.24066E+07
 3.46974E+08
 3.46974E+08
 3.45454E+08
 2.79909E+08
 2.79257E+08
 2.79909E+08
 2.79257E+08
 1.91912E+08
 1.91434E+08
 1.91912E+08
 1.91434E+08
 1.07063E+08
 1.07744E+08
 1.07063E+08
 1.07744E+08
 3.25107E+07
 3.24066E+07
 3.25107E+07
 3.25382E+07
 3.94615E+08
 3.46974E+08
 3.45454E+08
 3.46974E+08
 3.45454E+08
 2.79909E+08
 2.79257E+08
 2.79909E+08
 2.79257E+08
 1.91912E+08
 1.91434E+08
 1.91912E+08
 1.91434E+08
 1.07063E+08
 1.07744E+08
 1.07361E+08
 1.07744E+08
 3.25107E+07
 3.25382E+07
 3.25107E+07
 3.25382E+07
 3.94615E+08
 3.94615E+08
 3.96056E+08
 3.46974E+08
 3.45454E+08
 3.46974E+08
 3.45454E+08
 2.79909E+08
 2.79257E+08
 2.79909E+08
 2.79257E+08
 1.91912E+08
 1.91434E+08
 1.91912E+08
 1.91434E+08
 1.07361E+08
 1.07744E+08
 1.07361E+08
 1.07267E+08
 3.25107E+07
 3.25382E+07
 3.25107E+07
 3.25382E+07
 4.70970E+08
 3.94615E+08
 3.96056E+08
 3.94615E+08
 3.96056E+08
 3.46974E+08
 3.45454E+08
 3.46974E+08
 3.45454E+08
 2.79909E+08
 2.79257E+08
 2.79909E+08
 2.79257E+08
 1.91912E+08
 1.91434E+08
 1.91395E+08
 1.91434E+08
 1.07361E+08
 1.07267E+08
 1.07361E+08
 1.07267E+08
 3.25107E+07
 3.25382E+07
 3.25107E+07
 3.25382E+07
 1.80953E+08
 1.81687E+08
 1.80953E+08
 1.01716E+08
 1.01639E+08
 1.01639E+08
 1.01716E+08
 1.01716E+08
 1.01639E+08
 1.01639E+08
 3.09359E+07
 3.09359E+07
 3.11719E+07
 3.11719E+07
 3.11719E+07
 3.09359E+07
 3.09359E+07
 3.09359E+07
 3.11719E+07
 3.11719E+07
 3.11719E+07
 2.61446E+08
 1.80953E+08
 1.81687E+08
 1.80953E+08
 1.81687E+08
 1.01639E+08
 1.01716E+08
 1.01639E+08
 1.01716E+08
 3.11719E+07
 3.09359E+07
 3.11719E+07
 3.09359E+07
 2.61446E+08
 2.61446E+08
 2.64093E+08
 1.80953E+08
 1.81687E+08
 1.80953E+08
 1.81687E+08
 1.01639E+08
 1.01716E+08
 1.01639E+08
 1.01716E+08
 3.11719E+07
 3.09359E+07
 3.11719E+07
 3.09359E+07
 3.46974E+08
 2.79909E+08
 2.79257E+08
 2.79909E+08
 2.79257E+08
 1.80953E+08
 1.91434E+08
 1.80953E+08
 1.81687E+08
 1.07063E+08
 1.01716E+08
 1.07063E+08
 1.07744E+08
 3.26662E+07
 3.24066E+07
 3.25107E+07
 3.24066E+07
 3.46974E+08
 3.46974E+08
 3.45454E+08
 2.79909E+08
 2.79257E+08
 2.79909E+08
 2.79257E+08
 1.91912E+08
 1.91434E+08
 1.91912E+08
 1.91434E+08
 1.07063E+08
 1.07744E+08
 1.07063E+08
 1.07744E+08
 3.25107E+07
 3.24066E+07
 3.25107E+07
 3.25382E+07
 3.94615E+08
 3.46974E+08
 3.45454E+08
 3.46974E+08
 3.45454E+08
 2.79909E+08
 2.79257E+08
 2.79909E+08
 2.79257E+08
 1.91912E+08
 1.91434E+08
 1.91912E+08
 1.91434E+08
 1.07063E+08
 1.07744E+08
 1.07361E+08
 1.07744E+08
 3.25107E+07
 3.25382E+07
 3.25107E+07
 3.25382E+07
 3.94615E+08
 3.94615E+08
 3.96056E+08
 3.46974E+08
 3.45454E+08
 3.46974E+08
 3.45454E+08
 2.79909E+08
 2.79257E+08
 2.79909E+08
 2.79257E+08
 1.91912E+08
 1.91434E+08
 1.91912E+08
 1.91434E+08
 1.07361E+08
 1.07744E+08
 1.07361E+08
 1.07267E+08
 3.25107E+07
 3.25382E+07
 3.25107E+07
 3.25382E+07
 4.70970E+08
 3.94615E+08
 3.96056E+08
 3.94615E+08
 3.96056E+08
 3.46974E+08
 3.45454E+08
 3.46974E+08
 3.45454E+08
 2.79909E+08
 2.79257E+08
 2.79909E+08
 2.79257E+08
 1.91912E+08
 1.91434E+08
 1.91395E+08
 1.91434E+08
 1.07361E+08
 1.07267E+08
 1.07361E+08
 1.07267E+08
 3.25107E+07
 3.25382E+07
 3.25107E+07
 3.25382E+07
 4.70970E+08
 4.70970E+08
 4.70311E+08
 3.94615E+08
 3.96056E+08
 3.94615E+08
 3.96056E+08
 3.46974E+08
 3.45454E+08
 3.46974E+08
 3.45454E+08
 2.79909E+08
 2.79257E+08
 2.79909E+08
 2.79257E+08
 1.91395E+08
 1.91434E+08
 1.91395E+08
 1.90722E+08
 1.07361E+08
 1.07267E+08
 1.07361E+08
 1.07267E+08
 3.25107E+07
 3.25382E+07
 3.25107E+07
 3.25382E+07
 2.61446E+08
 1.81687E+08
 1.80953E+08
 1.81687E+08
 1.80953E+08
 1.80953E+08
 1.01716E+08
 1.01716E+08
 1.01639E+08
 1.01639E+08
 1.01716E+08
 1.01716E+08
 1.01639E+08
 1.01639E+08
 1.01639E+08
 3.09359E+07
 3.09359E+07
 3.09359E+07
 3.11719E+07
 3.11719E+07
 3.11719E+07
 3.09359E+07
 3.09359E+07
 3.09359E+07
 3.09359E+07
 3.11719E+07
 3.11719E+07
 3.11719E+07
 2.61446E+08
 2.61446E+08
 2.64093E+08
 1.80953E+08
 1.81687E+08
 1.80953E+08
 1.81687E+08
 1.01639E+08
 1.01716E+08
 1.01639E+08
 1.01716E+08
 3.11719E+07
 3.09359E+07
 3.11719E+07
 3.09359E+07
 3.26413E+08
 2.61446E+08
 2.64093E+08
 2.61446E+08
 2.64093E+08
 1.80953E+08
 1.81687E+08
 1.80953E+08
 1.81687E+08
 1.01639E+08
 1.01716E+08
 1.01639E+08
 1.01716E+08
 3.11719E+07
 3.09359E+07
 3.06032E+07
 3.09359E+07
 3.46974E+08
 3.46974E+08
 3.45454E+08
 2.79909E+08
 2.79257E+08
 2.61446E+08
 2.79257E+08
 1.80953E+08
 1.81687E+08
 1.91912E+08
 1.81687E+08
 1.07063E+08
 1.07744E+08
 1.07063E+08
 1.07744E+08
 3.25107E+07
 3.24066E+07
 3.25107E+07
 3.25382E+07
 3.94615E+08
 3.46974E+08
 3.45454E+08
 3.46974E+08
 3.45454E+08
 2.79909E+08
 2.79257E+08
 2.79909E+08
 2.79257E+08
 1.91912E+08
 1.91434E+08
 1.91912E+08
 1.91434E+08
 1.07063E+08
 1.07744E+08
 1.07361E+08
 1.07744E+08
 3.25107E+07
 3.25382E+07
 3.25107E+07
 3.25382E+07
 3.94615E+08
 3.94615E+08
 3.96056E+08
 3.46974E+08
 3.45454E+08
 3.46974E+08
 3.45454E+08
 2.79909E+08
 2.79257E+08
 2.79909E+08
 2.79257E+08
 1.91912E+08
 1.91434E+08
 1.91912E+08
 1.91434E+08
 1.07361E+08
 1.07744E+08
 1.07361E+08
 1.07267E+08
 3.25107E+07
 3.25382E+07
 3.25107E+07
 3.25382E+07
 4.70970E+08
 3.94615E+08
 3.96056E+08
 3.94615E+08
 3.96056E+08
 3.46974E+08
 3.45454E+08
 3.46974E+08
 3.45454E+08
 2.79909E+08
 2.79257E+08
 2.79909E+08
 2.79257E+08
 1.91912E+08
 1.91434E+08
 1.91395E+08
 1.91434E+08
 1.07361E+08
 1.07267E+08
 1.07361E+08
 1.07267E+08
 3.25107E+07
 3.25382E+07
 3.25107E+07
 3.25382E+07
 4.70970E+08
 4.70970E+08
 4.70311E+08
 3.94615E+08
 3.96056E+08
 3.94615E+08
 3.96056E+08
 3.46974E+08
 3.45454E+08
 3.46974E+08
 3.45454E+08
 2.79909E+08
 2.79257E+08
 2.79909E+08
 2.79257E+08
 1.91395E+08
 1.91434E+08
 1.91395E+08
 1.90722E+08
 1.07361E+08
 1.07267E+08
 1.07361E+08
 1.07267E+08
 3.25107E+07
 3.25382E+07
 3.25107E+07
 3.25382E+07
 5.14365E+08
 4.70970E+08
 4.70311E+08
 4.70970E+08
 4.70311E+08
 3.94615E+08
 3.96056E+08
 3.94615E+08
 3.96056E+08
 3.46974E+08
 3.45454E+08
 3.46974E+08
 3.45454E+08
 2.79909E+08
 2.79257E+08
 2.78798E+08
 2.79257E+08
 1.91395E+08
 1.90722E+08
 1.91395E+08
 1.90722E+08
 1.07361E+08
 1.07267E+08
 1.07361E+08
 1.07267E+08
 3.25107E+07
 3.25382E+07
 3.25107E+07
 3.25382E+07
 2.61446E+08
 2.64093E+08
 2.61446E+08
 1.81687E+08
 1.80953E+08
 1.80953E+08
 1.81687E+08
 1.81687E+08
 1.80953E+08
 1.80953E+08
 1.01716E+08
 1.01716E+08
 1.01639E+08
 1.01639E+08
 1.01639E+08
 1.01716E+08
 1.01716E+08
 1.01716E+08
 1.01639E+08
 1.01639E+08
 1.01639E+08
 3.09359E+07
 3.09359E+07
 3.09359E+07
 3.09359E+07
 3.11719E+07
 3.11719E+07
 3.11719E+07
 3.09359E+07
 3.09359E+07
 3.09359E+07
 3.17651E+07
 3.11719E+07
 3.06032E+07
 3.06032E+07
 3.06032E+07
 3.26413E+08
 2.61446E+08
 2.64093E+08
 2.61446E+08
 2.64093E+08
 1.80953E+08
 1.81687E+08
 1.80953E+08
 1.81687E+08
 1.01639E+08
 1.01716E+08
 1.01639E+08
 1.01716E+08
 3.11719E+07
 3.09359E+07
 3.06032E+07
 3.09359E+07
 3.26413E+08
 3.26413E+08
 3.25305E+08
 2.61446E+08
 2.64093E+08
 2.61446E+08
 2.64093E+08
 1.80953E+08
 1.81687E+08
 1.80953E+08
 1.81687E+08
 1.01639E+08
 1.01716E+08
 1.01639E+08
 1.01716E+08
 3.06032E+07
 3.09359E+07
 3.06032E+07
 3.17651E+07
 3.94615E+08
 3.46974E+08
 3.45454E+08
 3.46974E+08
 3.45454E+08
 2.61446E+08
 2.79257E+08
 2.61446E+08
 2.64093E+08
 1.91912E+08
 1.81687E+08
 1.91912E+08
 1.91434E+08
 1.07063E+08
 1.07744E+08
 1.07361E+08
 1.07744E+08
 3.25107E+07
 3.25382E+07
 3.25107E+07
 3.25382E+07
 3.94615E+08
 3.94615E+08
 3.96056E+08
 3.46974E+08
 3.45454E+08
 3.46974E+08
 3.45454E+08
 2.79909E+08
 2.79257E+08
 2.79909E+08
 2.79257E+08
 1.91912E+08
 1.91434E+08
 1.91912E+08
 1.91434E+08
 1.07361E+08
 1.07744E+08
 1.07361E+08
 1.07267E+08
 3.25107E+07
 3.25382E+07
 3.25107E+07
 3.25382E+07
 4.70970E+08
 3.94615E+08
 3.96056E+08
 3.94615E+08
 3.96056E+08
 3.46974E+08
 3.45454E+08
 3.46974E+08
 3.45454E+08
 2.79909E+08
 2.79257E+08
 2.79909E+08
 2.79257E+08
 1.91912E+08
 1.91434E+08
 1.91395E+08
 1.91434E+08
 1.07361E+08
 1.07267E+08
 1.07361E+08
 1.07267E+08
 3.25107E+07
 3.25382E+07
 3.25107E+07
 3.25382E+07
 4.70970E+08
 4.70970E+08
 4.70311E+08
 3.94615E+08
 3.96056E+08
 3.94615E+08
 3.96056E+08
 3.46974E+08
 3.45454E+08
 3.46974E+08
 3.45454E+08
 2.79909E+08
 2.79257E+08
 2.79909E+08
 2.79257E+08
 1.91395E+08
 1.91434E+08
 1.91395E+08
 1.90722E+08
 1.07361E+08
 1.07267E+08
 1.07361E+08
 1.07267E+08
 3.25107E+07
 3.25382E+07
 3.25107E+07
 3.25382E+07
 5.14365E+08
 4.70970E+08
 4.70311E+08
 4.70970E+08
 4.70311E+08
 3.94615E+08
 3.96056E+08
 3.94615E+08
 3.96056E+08
 3.46974E+08
 3.45454E+08
 3.46974E+08
 3.45454E+08
 2.79909E+08
 2.79257E+08
 2.78798E+08
 2.79257E+08
 1.91395E+08
 1.90722E+08
 1.91395E+08
 1.90722E+08
 1.07361E+08
 1.07267E+08
 1.07361E+08
 1.07267E+08
 3.25107E+07
 3.25382E+07
 3.25107E+07
 3.25382E+07
 5.14365E+08
 5.14365E+08
 5.14469E+08
 4.70970E+08
 4.70311E+08
 4.70970E+08
 4.70311E+08
 3.94615E+08
 3.96056E+08
 3.94615E+08
 3.96056E+08
 3.46974E+08
 3.45454E+08
 3.46974E+08
 3.45454E+08
 2.78798E+08
 2.79257E+08
 2.78798E+08
 2.78008E+08
 1.91395E+08
 1.90722E+08
 1.91395E+08
 1.90722E+08
 1.07361E+08
 1.07267E+08
 1.07361E+08
 1.07267E+08
 3.25107E+07
 3.25382E+07
 3.25107E+07
 3.25382E+07
 3.26413E+08
 2.64093E+08
 2.61446E+08
 2.64093E+08
 2.61446E+08
 2.61446E+08
 1.81687E+08
 1.81687E+08
 1.80953E+08
 1.80953E+08
 1.81687E+08
 1.81687E+08
 1.80953E+08
 1.80953E+08
 1.80953E+08
 1.01716E+08
 1.01716E+08
 1.01716E+08
 1.01639E+08
 1.01639E+08
 1.01639E+08
 1.01716E+08
 1.01716E+08
 1.01716E+08
 1.01716E+08
 1.01639E+08
 1.01639E+08
 1.01639E+08
 3.09359E+07
 3.09359E+07
 3.09359E+07
 3.17651E+07
 3.11719E+07
 3.06032E+07
 3.06032E+07
 3.06032E+07
 3.17651E+07
 3.17651E+07
 3.17651E+07
 3.17651E+07
 3.06032E+07
 3.06032E+07
 3.06032E+07
 3.06032E+07
 3.26413E+08
 3.26413E+08
 3.25305E+08
 2.61446E+08
 2.64093E+08
 2.61446E+08
 2.64093E+08
 1.80953E+08
 1.81687E+08
 1.80953E+08
 1.81687E+08
 1.01639E+08
 1.01716E+08
 1.01639E+08
 1.01716E+08
 3.06032E+07
 3.09359E+07
 3.06032E+07
 3.73824E+08
 3.26413E+08
 3.25305E+08
 3.26413E+08
 3.25305E+08
 2.61446E+08
 2.64093E+08
 2.61446E+08
 2.64093E+08
 1.80953E+08
 1.81687E+08
 1.80953E+08
 1.81687E+08
 1.01639E+08
 1.01716E+08
 1.01430E+08
 1.01716E+08
 3.06032E+07
 3.17651E+07
 3.06032E+07
 3.17651E+07
 3.94615E+08
 3.94615E+08
 3.96056E+08
 3.46974E+08
 3.45454E+08
 3.26413E+08
 3.45454E+08
 2.61446E+08
 2.64093E+08
 2.79909E+08
 2.64093E+08
 1.91912E+08
 1.91434E+08
 1.91912E+08
 1.91434E+08
 1.07361E+08
 1.07744E+08
 1.07361E+08
 1.07267E+08
 3.25107E+07
 3.25382E+07
 3.06032E+07
 3.25382E+07
 4.70970E+08
 3.94615E+08
 3.96056E+08
 3.94615E+08
 3.96056E+08
 3.46974E+08
 3.45454E+08
 3.46974E+08
 3.45454E+08
 2.79909E+08
 2.79257E+08
 2.79909E+08
 2.79257E+08
 1.91912E+08
 1.91434E+08
 1.91395E+08
 1.91434E+08
 1.07361E+08
 1.07267E+08
 1.07361E+08
 1.07267E+08
 3.25107E+07
 3.25382E+07
 3.25107E+07
 3.25382E+07
 4.70970E+08
 4.70970E+08
 4.70311E+08
 3.94615E+08
 3.96056E+08
 3.94615E+08
 3.96056E+08
 3.46974E+08
 3.45454E+08
 3.46974E+08
 3.45454E+08
 2.79909E+08
 2.79257E+08
 2.79909E+08
 2.79257E+08
 1.91395E+08
 1.91434E+08
 1.91395E+08
 1.90722E+08
 1.07361E+08
 1.07267E+08
 1.07361E+08
 1.07267E+08
 3.25107E+07
 3.25382E+07
 3.25107E+07
 3.25382E+07
 5.14365E+08
 4.70970E+08
 4.70311E+08
 4.70970E+08
 4.70311E+08
 3.94615E+08
 3.96056E+08
 3.94615E+08
 3.96056E+08
 3.46974E+08
 3.45454E+08
 3.46974E+08
 3.45454E+08
 2.79909E+08
 2.79257E+08
 2.78798E+08
 2.79257E+08
 1.91395E+08
 1.90722E+08
 1.91395E+08
 1.90722E+08
 1.07361E+08
 1.07267E+08
 1.07361E+08
 1.07267E+08
 3.25107E+07
 3.25382E+07
 3.25107E+07
 3.25382E+07
 5.14365E+08
 5.14365E+08
 5.14469E+08
 4.70970E+08
 4.70311E+08
 4.70970E+08
 4.70311E+08
 3.94615E+08
 3.96056E+08
 3.94615E+08
 3.96056E+08
 3.46974E+08
 3.45454E+08
 3.46974E+08
 3.45454E+08
 2.78798E+08
 2.79257E+08
 2.78798E+08
 2.78008E+08
 1.91395E+08
 1.90722E+08
 1.91395E+08
 1.90722E+08
 1.07361E+08
 1.07267E+08
 1.07361E+08
 1.07267E+08
 3.25107E+07
 3.25382E+07
 3.25107E+07
 3.25382E+07
 5.34563E+08
 5.14365E+08
 5.14469E+08
 5.14365E+08
 5.14469E+08
 4.70970E+08
 4.70311E+08
 4.70970E+08
 4.70311E+08
 3.94615E+08
 3.96056E+08
 3.94615E+08
 3.96056E+08
 3.46974E+08
 3.45454E+08
 3.45838E+08
 3.45454E+08
 2.78798E+08
 2.78008E+08
 2.78798E+08
 2.78008E+08
 1.91395E+08
 1.90722E+08
 1.91395E+08
 1.90722E+08
 1.07361E+08
 1.07267E+08
 1.07361E+08
 1.07267E+08
 3.25107E+07
 3.25382E+07
 3.25382E+07
 3.26413E+08
 3.25305E+08
 3.26413E+08
 2.64093E+08
 2.61446E+08
 2.61446E+08
 2.64093E+08
 2.64093E+08
 2.61446E+08
 2.61446E+08
 1.81687E+08
 1.81687E+08
 1.80953E+08
 1.80953E+08
 1.80953E+08
 1.81687E+08
 1.81687E+08
 1.81687E+08
 1.80953E+08
 1.80953E+08
 1.80953E+08
 1.01716E+08
 1.01716E+08
 1.01716E+08
 1.01716E+08
 1.01639E+08
 1.01639E+08
 1.01639E+08
 1.01716E+08
 1.01716E+08
 1.01716E+08
 1.01472E+08
 1.01639E+08
 1.01430E+08
 1.01430E+08
 1.01430E+08
 3.17651E+07
 3.17651E+07
 3.17651E+07
 3.17651E+07
 3.06032E+07
 3.06032E+07
 3.06032E+07
 3.06032E+07
 3.17651E+07
 3.17651E+07
 3.17651E+07
 3.17651E+07
 3.06032E+07
 3.06032E+07
 3.06032E+07
 3.73824E+08
 3.26413E+08
 3.25305E+08
 3.26413E+08
 3.25305E+08
 2.61446E+08
 2.64093E+08
 2.61446E+08
 2.64093E+08
 1.80953E+08
 1.81687E+08
 1.80953E+08
 1.81687E+08
 1.01639E+08
 1.01716E+08
 1.01430E+08
 1.01716E+08
 3.06032E+07
 3.06032E+07
 3.73824E+08
 3.73824E+08
 3.72904E+08
 3.26413E+08
 3.25305E+08
 3.26413E+08
 3.25305E+08
 2.61446E+08
 2.64093E+08
 2.61446E+08
 2.64093E+08
 1.80953E+08
 1.81687E+08
 1.80953E+08
 1.81687E+08
 1.01430E+08
 1.01716E+08
 1.01430E+08
 1.01472E+08
 3.06032E+07
 3.17651E+07
 3.06032E+07
 3.17651E+07
 4.70970E+08
 3.94615E+08
 3.96056E+08
 3.94615E+08
 3.96056E+08
 3.26413E+08
 3.45454E+08
 3.26413E+08
 3.25305E+08
 2.79909E+08
 2.64093E+08
 2.79909E+08
 2.79257E+08
 1.91912E+08
 1.91434E+08
 1.91395E+08
 1.91434E+08
 1.07361E+08
 1.07267E+08
 1.07361E+08
 1.07267E+08
 3.06032E+07
 3.25382E+07
 3.06032E+07
 3.17651E+07
 4.70970E+08
 4.70970E+08
 4.70311E+08
 3.94615E+08
 3.96056E+08
 3.94615E+08
 3.96056E+08
 3.46974E+08
 3.45454E+08
 3.46974E+08
 3.45454E+08
 2.79909E+08
 2.79257E+08
 2.79909E+08
 2.79257E+08
 1.91395E+08
 1.91434E+08
 1.91395E+08
 1.90722E+08
 1.07361E+08
 1.07267E+08
 1.07361E+08
 1.07267E+08
 3.25107E+07
 3.25382E+07
 3.25107E+07
 3.25382E+07
 5.14365E+08
 4.70970E+08
 4.70311E+08
 4.70970E+08
 4.70311E+08
 3.94615E+08
 3.96056E+08
 3.94615E+08
 3.96056E+08
 3.46974E+08
 3.45454E+08
 3.46974E+08
 3.45454E+08
 2.79909E+08
 2.79257E+08
 2.78798E+08
 2.79257E+08
 1.91395E+08
 1.90722E+08
 1.91395E+08
 1.90722E+08
 1.07361E+08
 1.07267E+08
 1.07361E+08
 1.07267E+08
 3.25107E+07
 3.25382E+07
 3.25107E+07
 3.25382E+07
 5.14365E+08
 5.14365E+08
 5.14469E+08
 4.70970E+08
 4.70311E+08
 4.70970E+08
 4.70311E+08
 3.94615E+08
 3.96056E+08
 3.94615E+08
 3.96056E+08
 3.46974E+08
 3.45454E+08
 3.46974E+08
 3.45454E+08
 2.78798E+08
 2.79257E+08
 2.78798E+08
 2.78008E+08
 1.91395E+08
 1.90722E+08
 1.91395E+08
 1.90722E+08
 1.07361E+08
 1.07267E+08
 1.07361E+08
 1.07267E+08
 3.25107E+07
 3.25382E+07
 3.25107E+07
 3.25382E+07
 5.34563E+08
 5.14365E+08
 5.14469E+08
 5.14365E+08
 5.14469E+08
 4.70970E+08
 4.70311E+08
 4.70970E+08
 4.70311E+08
 3.94615E+08
 3.96056E+08
 3.94615E+08
 3.96056E+08
 3.46974E+08
 3.45454E+08
 3.45838E+08
 3.45454E+08
 2.78798E+08
 2.78008E+08
 2.78798E+08
 2.78008E+08
 1.91395E+08
 1.90722E+08
 1.91395E+08
 1.90722E+08
 1.07361E+08
 1.07267E+08
 1.07361E+08
 1.07267E+08
 3.25107E+07
 3.25382E+07
 3.25382E+07
 5.34563E+08
 5.34563E+08
 5.35177E+08
 5.14365E+08
 5.14469E+08
 5.14365E+08
 5.14469E+08
 4.70970E+08
 4.70311E+08
 4.70970E+08
 4.70311E+08
 3.94615E+08
 3.96056E+08
 3.94615E+08
 3.96056E+08
 3.45838E+08
 3.45454E+08
 3.45838E+08
 3.45181E+08
 2.78798E+08
 2.78008E+08
 2.78798E+08
 2.78008E+08
 1.91395E+08
 1.90722E+08
 1.91395E+08
 1.90722E+08
 1.07361E+08
 1.07267E+08
 1.07361E+08
 1.07267E+08
 3.25382E+07
 3.73824E+08
 3.25305E+08
 3.26413E+08
 3.25305E+08
 3.26413E+08
 3.26413E+08
 2.64093E+08
 2.64093E+08
 2.61446E+08
 2.61446E+08
 2.64093E+08
 2.64093E+08
 2.61446E+08
 2.61446E+08
 2.61446E+08
 1.81687E+08
 1.81687E+08
 1.81687E+08
 1.80953E+08
 1.80953E+08
 1.80953E+08
 1.81687E+08
 1.81687E+08
 1.81687E+08
 1.81687E+08
 1.80953E+08
 1.80953E+08
 1.80953E+08
 1.01716E+08
 1.01716E+08
 1.01716E+08
 1.01472E+08
 1.01639E+08
 1.01430E+08
 1.01430E+08
 1.01430E+08
 1.01472E+08
 1.01472E+08
 1.01472E+08
 1.01472E+08
 1.01430E+08
 1.01430E+08
 1.01430E+08
 1.01430E+08
 3.17651E+07
 3.17651E+07
 3.17651E+07
 3.17651E+07
 3.06032E+07
 3.06032E+07
 3.06032E+07
 3.17651E+07
 3.17651E+07
 3.17651E+07
 3.06032E+07
 3.06032E+07
 3.06032E+07
 3.73824E+08
 3.73824E+08
 3.72904E+08
 3.26413E+08
 3.25305E+08
 3.26413E+08
 3.25305E+08
 2.61446E+08
 2.64093E+08
 2.61446E+08
 2.64093E+08
 1.80953E+08
 1.81687E+08
 1.80953E+08
 1.81687E+08
 1.01430E+08
 1.01716E+08
 1.01430E+08
 3.06032E+07
 3.06032E+07
 4.42768E+08
 3.73824E+08
 3.72904E+08
 3.73824E+08
 3.72904E+08
 3.26413E+08
 3.25305E+08
 3.26413E+08
 3.25305E+08
 2.61446E+08
 2.64093E+08
 2.61446E+08
 2.64093E+08
 1.80953E+08
 1.81687E+08
 1.80295E+08
 1.81687E+08
 1.01430E+08
 1.01472E+08
 1.01430E+08
 1.01472E+08
 3.06032E+07
 3.17651E+07
 3.06032E+07
 3.17651E+07
 4.70970E+08
 4.70970E+08
 4.70311E+08
 3.94615E+08
 3.96056E+08
 3.73824E+08
 3.96056E+08
 3.26413E+08
 3.25305E+08
 3.46974E+08
 3.25305E+08
 2.79909E+08
 2.79257E+08
 2.79909E+08
 2.79257E+08
 1.91395E+08
 1.91434E+08
 1.91395E+08
 1.90722E+08
 1.07361E+08
 1.07267E+08
 1.01430E+08
 1.07267E+08
 3.06032E+07
 3.17651E+07
 3.25107E+07
 3.17651E+07
 5.14365E+08
 4.70970E+08
 4.70311E+08
 4.70970E+08
 4.70311E+08
 3.94615E+08
 3.96056E+08
 3.94615E+08
 3.96056E+08
 3.46974E+08
 3.45454E+08
 3.46974E+08
 3.45454E+08
 2.79909E+08
 2.79257E+08
 2.78798E+08
 2.79257E+08
 1.91395E+08
 1.90722E+08
 1.91395E+08
 1.90722E+08
 1.07361E+08
 1.07267E+08
 1.07361E+08
 1.07267E+08
 3.25107E+07
 3.25382E+07
 3.25107E+07
 3.25382E+07
 5.14365E+08
 5.14365E+08
 5.14469E+08
 4.70970E+08
 4.70311E+08
 4.70970E+08
 4.70311E+08
 3.94615E+08
 3.96056E+08
 3.94615E+08
 3.96056E+08
 3.46974E+08
 3.45454E+08
 3.46974E+08
 3.45454E+08
 2.78798E+08
 2.79257E+08
 2.78798E+08
 2.78008E+08
 1.91395E+08
 1.90722E+08
 1.91395E+08
 1.90722E+08
 1.07361E+08
 1.07267E+08
 1.07361E+08
 1.07267E+08
 3.25107E+07
 3.25382E+07
 3.25107E+07
 3.25382E+07
 5.34563E+08
 5.14365E+08
 5.14469E+08
 5.14365E+08
 5.14469E+08
 4.70970E+08
 4.70311E+08
 4.70970E+08
 4.70311E+08
 3.94615E+08
 3.96056E+08
 3.94615E+08
 3.96056E+08
 3.46974E+08
 3.45454E+08
 3.45838E+08
 3.45454E+08
 2.78798E+08
 2.78008E+08
 2.78798E+08
 2.78008E+08
 1.91395E+08
 1.90722E+08
 1.91395E+08
 1.90722E+08
 1.07361E+08
 1.07267E+08
 1.07361E+08
 1.07267E+08
 3.25107E+07
 3.25382E+07
 3.25382E+07
 5.34563E+08
 5.34563E+08
 5.35177E+08
 5.14365E+08
 5.14469E+08
 5.14365E+08
 5.14469E+08
 4.70970E+08
 4.70311E+08
 4.70970E+08
 4.70311E+08
 3.94615E+08
 3.96056E+08
 3.94615E+08
 3.96056E+08
 3.45838E+08
 3.45454E+08
 3.45838E+08
 3.45181E+08
 2.78798E+08
 2.78008E+08
 2.78798E+08
 2.78008E+08
 1.91395E+08
 1.90722E+08
 1.91395E+08
 1.90722E+08
 1.07361E+08
 1.07267E+08
 1.07361E+08
 1.07267E+08
 3.25382E+07
 5.86247E+08
 5.34563E+08
 5.35177E+08
 5.34563E+08
 5.35177E+08
 5.14365E+08
 5.14469E+08
 5.14365E+08
 5.14469E+08
 4.70970E+08
 4.70311E+08
 4.70970E+08
 4.70311E+08
 3.94615E+08
 3.96056E+08
 3.94310E+08
 3.96056E+08
 3.45838E+08
 3.45181E+08
 3.45838E+08
 3.45181E+08
 2.78798E+08
 2.78008E+08
 2.78798E+08
 2.78008E+08
 1.91395E+08
 1.90722E+08
 1.91395E+08
 1.90722E+08
 1.07361E+08
 1.07267E+08
 1.07267E+08
 3.73824E+08
 3.72904E+08
 3.73824E+08
 3.25305E+08
 3.26413E+08
 3.26413E+08
 3.25305E+08
 3.25305E+08
 3.26413E+08
 3.26413E+08
 2.64093E+08
 2.64093E+08
 2.64093E+08
 2.61446E+08
 2.61446E+08
 2.64093E+08
 2.64093E+08
 2.64093E+08
 2.61446E+08
 2.61446E+08
 2.61446E+08
 1.81687E+08
 1.81687E+08
 1.81687E+08
 1.81687E+08
 1.80953E+08
 1.80953E+08
 1.80953E+08
 1.81687E+08
 1.81687E+08
 1.81687E+08
 1.80442E+08
 1.80953E+08
 1.80295E+08
 1.80295E+08
 1.80295E+08
 1.01472E+08
 1.01472E+08
 1.01472E+08
 1.01472E+08
 1.01430E+08
 1.01430E+08
 1.01430E+08
 1.01430E+08
 1.01472E+08
 1.01472E+08
 1.01472E+08
 1.01472E+08
 1.01430E+08
 1.01430E+08
 1.01430E+08
 3.17651E+07
 3.17651E+07
 3.17651E+07
 3.17651E+07
 3.06032E+07
 3.06032E+07
 3.17651E+07
 3.17651E+07
 3.17651E+07
 3.06032E+07
 3.06032E+07
 4.42768E+08
 3.73824E+08
 3.72904E+08
 3.73824E+08
 3.72904E+08
 3.26413E+08
 3.25305E+08