FoamFile
{
    version     2.0;
    format      ascii;
    class       volScalarField;
    location    "/home/tomas/OpenFOAM/tomas-v2106/run/AP-1000/pin_meshWR_test/constant/fuel";
    object      volPower_o;
}

dimensions      [1 -1 -3 0 0 0 0];

internalField	nonuniform List<scalar>
16000
(
27759456.268247265
27759456.268247265
27759456.268247265
27759456.268247265
27741304.462759428
27759456.268247265
27759456.268247265
27759456.268247265
27741304.462759428
92504890.41361444
27759456.268247265
27741304.462759428
27759456.268247265
27741304.462759428
27759456.268247265
27759456.268247265
27759456.268247265
27741304.462759428
92504890.41361444
27759456.268247265
27741304.462759428
27759456.268247265
27741304.462759428
92504890.41361444
92504890.41361444
93129336.01987886
27759456.268247265
27741304.462759428
27759456.268247265
27741304.462759428
27759456.268247265
27759456.268247265
27759456.268247265
27741304.462759428
92504890.41361444
27759456.268247265
27741304.462759428
27759456.268247265
27741304.462759428
92504890.41361444
92504890.41361444
93129336.01987886
27759456.268247265
27741304.462759428
27759456.268247265
27741304.462759428
165372934.4243998
92504890.41361444
93129336.01987886
92504890.41361444
93129336.01987886
27759456.268247265
27741304.462759428
27759456.268247265
27741304.462759428
27759456.268247265
27759456.268247265
27759456.268247265
27741304.462759428
92504890.41361444
27759456.268247265
27741304.462759428
27759456.268247265
27741304.462759428
92504890.41361444
92504890.41361444
93129336.01987886
27759456.268247265
27741304.462759428
27759456.268247265
27741304.462759428
165372934.4243998
92504890.41361444
93129336.01987886
92504890.41361444
93129336.01987886
27759456.268247265
27741304.462759428
27759456.268247265
27741304.462759428
165372934.4243998
165372934.4243998
165730683.6005193
92504890.41361444
93129336.01987886
92504890.41361444
93129336.01987886
27759456.268247265
27741304.462759428
27759456.268247265
27741304.462759428
26941046.02431828
27759456.268247265
27759456.268247265
27741304.462759428
92504890.41361444
27759456.268247265
27741304.462759428
27759456.268247265
27741304.462759428
92504890.41361444
92504890.41361444
93129336.01987886
27759456.268247265
27741304.462759428
27759456.268247265
27741304.462759428
165372934.4243998
92504890.41361444
93129336.01987886
92504890.41361444
93129336.01987886
27759456.268247265
27741304.462759428
27759456.268247265
27741304.462759428
165372934.4243998
165372934.4243998
165730683.6005193
92504890.41361444
93129336.01987886
92504890.41361444
93129336.01987886
27759456.268247265
27741304.462759428
27759456.268247265
27741304.462759428
244303329.00588024
165372934.4243998
165730683.6005193
165372934.4243998
165730683.6005193
92504890.41361444
93129336.01987886
92504890.41361444
93129336.01987886
27759456.268247265
27741304.462759428
27759456.268247265
27741304.462759428
26941046.02431828
26941046.02431828
26941046.02431828
26711018.39845145
92504890.41361444
27759456.268247265
27741304.462759428
27759456.268247265
27741304.462759428
92504890.41361444
92504890.41361444
93129336.01987886
27759456.268247265
27741304.462759428
27759456.268247265
27741304.462759428
165372934.4243998
92504890.41361444
93129336.01987886
92504890.41361444
93129336.01987886
27759456.268247265
27741304.462759428
27759456.268247265
27741304.462759428
165372934.4243998
165372934.4243998
165730683.6005193
92504890.41361444
93129336.01987886
92504890.41361444
93129336.01987886
27759456.268247265
27741304.462759428
27759456.268247265
27741304.462759428
244303329.00588024
165372934.4243998
165730683.6005193
165372934.4243998
165730683.6005193
92504890.41361444
93129336.01987886
92504890.41361444
93129336.01987886
27759456.268247265
27741304.462759428
27759456.268247265
27741304.462759428
244303329.00588024
244303329.00588024
244912501.24830377
165372934.4243998
165730683.6005193
165372934.4243998
165730683.6005193
92504890.41361444
93129336.01987886
92504890.41361444
93129336.01987886
27759456.268247265
27741304.462759428
27759456.268247265
27741304.462759428
26941046.02431828
26941046.02431828
26941046.02431828
26711018.39845145
87767289.68590792
26941046.02431828
26711018.39845145
26941046.02431828
26711018.39845145
92504890.41361444
92504890.41361444
93129336.01987886
27759456.268247265
27741304.462759428
26941046.02431828
27741304.462759428
165372934.4243998
92504890.41361444
93129336.01987886
92504890.41361444
93129336.01987886
27759456.268247265
27741304.462759428
27759456.268247265
27741304.462759428
165372934.4243998
165372934.4243998
165730683.6005193
92504890.41361444
93129336.01987886
92504890.41361444
93129336.01987886
27759456.268247265
27741304.462759428
27759456.268247265
27741304.462759428
244303329.00588024
165372934.4243998
165730683.6005193
165372934.4243998
165730683.6005193
92504890.41361444
93129336.01987886
92504890.41361444
93129336.01987886
27759456.268247265
27741304.462759428
27759456.268247265
27741304.462759428
244303329.00588024
244303329.00588024
244912501.24830377
165372934.4243998
165730683.6005193
165372934.4243998
165730683.6005193
92504890.41361444
93129336.01987886
92504890.41361444
93129336.01987886
27759456.268247265
27741304.462759428
27759456.268247265
27741304.462759428
310627324.04791135
244303329.00588024
244912501.24830377
244303329.00588024
244912501.24830377
165372934.4243998
165730683.6005193
165372934.4243998
165730683.6005193
92504890.41361444
93129336.01987886
92504890.41361444
93129336.01987886
27759456.268247265
27741304.462759428
27710229.04171391
27741304.462759428
26941046.02431828
26711018.39845145
26941046.02431828
87767289.68590792
26941046.02431828
26711018.39845145
26941046.02431828
26711018.39845145
87767289.68590792
87767289.68590792
87489350.62036124
26941046.02431828
26711018.39845145
26941046.02431828
26711018.39845145
165372934.4243998
92504890.41361444
93129336.01987886
92504890.41361444
93129336.01987886
26941046.02431828
27741304.462759428
26941046.02431828
26711018.39845145
165372934.4243998
165372934.4243998
165730683.6005193
92504890.41361444
93129336.01987886
92504890.41361444
93129336.01987886
27759456.268247265
27741304.462759428
27759456.268247265
27741304.462759428
244303329.00588024
165372934.4243998
165730683.6005193
165372934.4243998
165730683.6005193
92504890.41361444
93129336.01987886
92504890.41361444
93129336.01987886
27759456.268247265
27741304.462759428
27759456.268247265
27741304.462759428
244303329.00588024
244303329.00588024
244912501.24830377
165372934.4243998
165730683.6005193
165372934.4243998
165730683.6005193
92504890.41361444
93129336.01987886
92504890.41361444
93129336.01987886
27759456.268247265
27741304.462759428
27759456.268247265
27741304.462759428
310627324.04791135
244303329.00588024
244912501.24830377
244303329.00588024
244912501.24830377
165372934.4243998
165730683.6005193
165372934.4243998
165730683.6005193
92504890.41361444
93129336.01987886
92504890.41361444
93129336.01987886
27759456.268247265
27741304.462759428
27710229.04171391
27741304.462759428
310627324.04791135
310627324.04791135
311598944.96302086
244303329.00588024
244912501.24830377
244303329.00588024
244912501.24830377
165372934.4243998
165730683.6005193
165372934.4243998
165730683.6005193
92504890.41361444
93129336.01987886
92504890.41361444
93129336.01987886
27710229.04171391
27741304.462759428
27710229.04171391
27708407.986794416
87489350.62036124
26711018.39845145
26941046.02431828
26711018.39845145
26941046.02431828
26941046.02431828
87767289.68590792
87767289.68590792
87489350.62036124
26941046.02431828
26711018.39845145
26941046.02431828
26711018.39845145
155922083.7796696
87767289.68590792
87489350.62036124
87767289.68590792
87489350.62036124
26941046.02431828
26711018.39845145
26941046.02431828
26711018.39845145
165372934.4243998
165372934.4243998
165730683.6005193
92504890.41361444
93129336.01987886
87767289.68590792
93129336.01987886
26941046.02431828
26711018.39845145
27759456.268247265
26711018.39845145
244303329.00588024
165372934.4243998
165730683.6005193
165372934.4243998
165730683.6005193
92504890.41361444
93129336.01987886
92504890.41361444
93129336.01987886
27759456.268247265
27741304.462759428
27759456.268247265
27741304.462759428
244303329.00588024
244303329.00588024
244912501.24830377
165372934.4243998
165730683.6005193
165372934.4243998
165730683.6005193
92504890.41361444
93129336.01987886
92504890.41361444
93129336.01987886
27759456.268247265
27741304.462759428
27759456.268247265
27741304.462759428
310627324.04791135
244303329.00588024
244912501.24830377
244303329.00588024
244912501.24830377
165372934.4243998
165730683.6005193
165372934.4243998
165730683.6005193
92504890.41361444
93129336.01987886
92504890.41361444
93129336.01987886
27759456.268247265
27741304.462759428
27710229.04171391
27741304.462759428
310627324.04791135
310627324.04791135
311598944.96302086
244303329.00588024
244912501.24830377
244303329.00588024
244912501.24830377
165372934.4243998
165730683.6005193
165372934.4243998
165730683.6005193
92504890.41361444
93129336.01987886
92504890.41361444
93129336.01987886
27710229.04171391
27741304.462759428
27710229.04171391
27708407.986794416
356996669.23180854
310627324.04791135
311598944.96302086
310627324.04791135
311598944.96302086
244303329.00588024
244912501.24830377
244303329.00588024
244912501.24830377
165372934.4243998
165730683.6005193
165372934.4243998
165730683.6005193
92504890.41361444
93129336.01987886
92795084.32659152
93129336.01987886
27710229.04171391
27708407.986794416
27710229.04171391
27708407.986794416
87767289.68590792
87489350.62036124
87767289.68590792
26711018.39845145
26941046.02431828
26941046.02431828
26711018.39845145
26711018.39845145
26941046.02431828
26941046.02431828
155922083.7796696
87767289.68590792
87489350.62036124
87767289.68590792
87489350.62036124
26941046.02431828
26711018.39845145
26941046.02431828
26711018.39845145
155922083.7796696
155922083.7796696
157119768.4689256
87767289.68590792
87489350.62036124
87767289.68590792
87489350.62036124
26941046.02431828
26711018.39845145
26941046.02431828
26711018.39845145
244303329.00588024
165372934.4243998
165730683.6005193
165372934.4243998
165730683.6005193
87767289.68590792
93129336.01987886
87767289.68590792
87489350.62036124
27759456.268247265
26711018.39845145
27759456.268247265
27741304.462759428
244303329.00588024
244303329.00588024
244912501.24830377
165372934.4243998
165730683.6005193
165372934.4243998
165730683.6005193
92504890.41361444
93129336.01987886
92504890.41361444
93129336.01987886
27759456.268247265
27741304.462759428
27759456.268247265
27741304.462759428
310627324.04791135
244303329.00588024
244912501.24830377
244303329.00588024
244912501.24830377
165372934.4243998
165730683.6005193
165372934.4243998
165730683.6005193
92504890.41361444
93129336.01987886
92504890.41361444
93129336.01987886
27759456.268247265
27741304.462759428
27710229.04171391
27741304.462759428
310627324.04791135
310627324.04791135
311598944.96302086
244303329.00588024
244912501.24830377
244303329.00588024
244912501.24830377
165372934.4243998
165730683.6005193
165372934.4243998
165730683.6005193
92504890.41361444
93129336.01987886
92504890.41361444
93129336.01987886
27710229.04171391
27741304.462759428
27710229.04171391
27708407.986794416
356996669.23180854
310627324.04791135
311598944.96302086
310627324.04791135
311598944.96302086
244303329.00588024
244912501.24830377
244303329.00588024
244912501.24830377
165372934.4243998
165730683.6005193
165372934.4243998
165730683.6005193
92504890.41361444
93129336.01987886
92795084.32659152
93129336.01987886
27710229.04171391
27708407.986794416
27710229.04171391
27708407.986794416
356996669.23180854
356996669.23180854
356983158.1791801
310627324.04791135
311598944.96302086
310627324.04791135
311598944.96302086
244303329.00588024
244912501.24830377
244303329.00588024
244912501.24830377
165372934.4243998
165730683.6005193
165372934.4243998
165730683.6005193
92795084.32659152
93129336.01987886
92795084.32659152
92333358.78893973
27710229.04171391
27708407.986794416
27710229.04171391
27708407.986794416
155922083.7796696
87489350.62036124
87767289.68590792
87489350.62036124
87767289.68590792
87767289.68590792
26711018.39845145
26711018.39845145
26941046.02431828
26941046.02431828
26711018.39845145
26711018.39845145
26941046.02431828
26941046.02431828
26941046.02431828
155922083.7796696
155922083.7796696
157119768.4689256
87767289.68590792
87489350.62036124
87767289.68590792
87489350.62036124
26941046.02431828
26711018.39845145
26941046.02431828
26711018.39845145
230526613.61223936
155922083.7796696
157119768.4689256
155922083.7796696
157119768.4689256
87767289.68590792
87489350.62036124
87767289.68590792
87489350.62036124
26941046.02431828
26711018.39845145
26941046.02431828
26711018.39845145
244303329.00588024
244303329.00588024
244912501.24830377
165372934.4243998
165730683.6005193
155922083.7796696
165730683.6005193
87767289.68590792
87489350.62036124
92504890.41361444
87489350.62036124
27759456.268247265
27741304.462759428
27759456.268247265
27741304.462759428
310627324.04791135
244303329.00588024
244912501.24830377
244303329.00588024
244912501.24830377
165372934.4243998
165730683.6005193
165372934.4243998
165730683.6005193
92504890.41361444
93129336.01987886
92504890.41361444
93129336.01987886
27759456.268247265
27741304.462759428
27710229.04171391
27741304.462759428
310627324.04791135
310627324.04791135
311598944.96302086
244303329.00588024
244912501.24830377
244303329.00588024
244912501.24830377
165372934.4243998
165730683.6005193
165372934.4243998
165730683.6005193
92504890.41361444
93129336.01987886
92504890.41361444
93129336.01987886
27710229.04171391
27741304.462759428
27710229.04171391
27708407.986794416
356996669.23180854
310627324.04791135
311598944.96302086
310627324.04791135
311598944.96302086
244303329.00588024
244912501.24830377
244303329.00588024
244912501.24830377
165372934.4243998
165730683.6005193
165372934.4243998
165730683.6005193
92504890.41361444
93129336.01987886
92795084.32659152
93129336.01987886
27710229.04171391
27708407.986794416
27710229.04171391
27708407.986794416
356996669.23180854
356996669.23180854
356983158.1791801
310627324.04791135
311598944.96302086
310627324.04791135
311598944.96302086
244303329.00588024
244912501.24830377
244303329.00588024
244912501.24830377
165372934.4243998
165730683.6005193
165372934.4243998
165730683.6005193
92795084.32659152
93129336.01987886
92795084.32659152
92333358.78893973
27710229.04171391
27708407.986794416
27710229.04171391
27708407.986794416
427851566.4009493
356996669.23180854
356983158.1791801
356996669.23180854
356983158.1791801
310627324.04791135
311598944.96302086
310627324.04791135
311598944.96302086
244303329.00588024
244912501.24830377
244303329.00588024
244912501.24830377
165372934.4243998
165730683.6005193
165849933.32589248
165730683.6005193
92795084.32659152
92333358.78893973
92795084.32659152
92333358.78893973
27710229.04171391
27708407.986794416
27710229.04171391
27708407.986794416
155922083.7796696
157119768.4689256
155922083.7796696
87489350.62036124
87767289.68590792
87767289.68590792
87489350.62036124
87489350.62036124
87767289.68590792
87767289.68590792
26711018.39845145
26711018.39845145
26941046.02431828
26941046.02431828
26941046.02431828
26711018.39845145
26711018.39845145
26711018.39845145
26941046.02431828
26941046.02431828
26941046.02431828
230526613.61223936
155922083.7796696
157119768.4689256
155922083.7796696
157119768.4689256
87767289.68590792
87489350.62036124
87767289.68590792
87489350.62036124
26941046.02431828
26711018.39845145
26941046.02431828
26711018.39845145
230526613.61223936
230526613.61223936
230006138.50704068
155922083.7796696
157119768.4689256
155922083.7796696
157119768.4689256
87767289.68590792
87489350.62036124
87767289.68590792
87489350.62036124
26941046.02431828
26711018.39845145
26941046.02431828
26711018.39845145
310627324.04791135
244303329.00588024
244912501.24830377
244303329.00588024
244912501.24830377
155922083.7796696
165730683.6005193
155922083.7796696
157119768.4689256
92504890.41361444
87489350.62036124
92504890.41361444
93129336.01987886
27759456.268247265
27741304.462759428
27710229.04171391
27741304.462759428
310627324.04791135
310627324.04791135
311598944.96302086
244303329.00588024
244912501.24830377
244303329.00588024
244912501.24830377
165372934.4243998
165730683.6005193
165372934.4243998
165730683.6005193
92504890.41361444
93129336.01987886
92504890.41361444
93129336.01987886
27710229.04171391
27741304.462759428
27710229.04171391
27708407.986794416
356996669.23180854
310627324.04791135
311598944.96302086
310627324.04791135
311598944.96302086
244303329.00588024
244912501.24830377
244303329.00588024
244912501.24830377
165372934.4243998
165730683.6005193
165372934.4243998
165730683.6005193
92504890.41361444
93129336.01987886
92795084.32659152
93129336.01987886
27710229.04171391
27708407.986794416
27710229.04171391
27708407.986794416
356996669.23180854
356996669.23180854
356983158.1791801
310627324.04791135
311598944.96302086
310627324.04791135
311598944.96302086
244303329.00588024
244912501.24830377
244303329.00588024
244912501.24830377
165372934.4243998
165730683.6005193
165372934.4243998
165730683.6005193
92795084.32659152
93129336.01987886
92795084.32659152
92333358.78893973
27710229.04171391
27708407.986794416
27710229.04171391
27708407.986794416
427851566.4009493
356996669.23180854
356983158.1791801
356996669.23180854
356983158.1791801
310627324.04791135
311598944.96302086
310627324.04791135
311598944.96302086
244303329.00588024
244912501.24830377
244303329.00588024
244912501.24830377
165372934.4243998
165730683.6005193
165849933.32589248
165730683.6005193
92795084.32659152
92333358.78893973
92795084.32659152
92333358.78893973
27710229.04171391
27708407.986794416
27710229.04171391
27708407.986794416
427851566.4009493
427851566.4009493
428633445.14218915
356996669.23180854
356983158.1791801
356996669.23180854
356983158.1791801
310627324.04791135
311598944.96302086
310627324.04791135
311598944.96302086
244303329.00588024
244912501.24830377
244303329.00588024
244912501.24830377
165849933.32589248
165730683.6005193
165849933.32589248
164839541.56410995
92795084.32659152
92333358.78893973
92795084.32659152
92333358.78893973
27710229.04171391
27708407.986794416
27710229.04171391
27708407.986794416
230526613.61223936
157119768.4689256
155922083.7796696
157119768.4689256
155922083.7796696
155922083.7796696
87489350.62036124
87489350.62036124
87767289.68590792
87767289.68590792
87489350.62036124
87489350.62036124
87767289.68590792
87767289.68590792
87767289.68590792
26711018.39845145
26711018.39845145
26711018.39845145
26941046.02431828
26941046.02431828
26941046.02431828
26711018.39845145
26711018.39845145
26711018.39845145
26711018.39845145
26941046.02431828
26941046.02431828
26941046.02431828
230526613.61223936
230526613.61223936
230006138.50704068
155922083.7796696
157119768.4689256
155922083.7796696
157119768.4689256
87767289.68590792
87489350.62036124
87767289.68590792
87489350.62036124
26941046.02431828
26711018.39845145
26941046.02431828
26711018.39845145
293882843.7729041
230526613.61223936
230006138.50704068
230526613.61223936
230006138.50704068
155922083.7796696
157119768.4689256
155922083.7796696
157119768.4689256
87767289.68590792
87489350.62036124
87767289.68590792
87489350.62036124
26941046.02431828
26711018.39845145
27221116.464219943
26711018.39845145
310627324.04791135
310627324.04791135
311598944.96302086
244303329.00588024
244912501.24830377
230526613.61223936
244912501.24830377
155922083.7796696
157119768.4689256
165372934.4243998
157119768.4689256
92504890.41361444
93129336.01987886
92504890.41361444
93129336.01987886
27710229.04171391
27741304.462759428
27710229.04171391
27708407.986794416
356996669.23180854
310627324.04791135
311598944.96302086
310627324.04791135
311598944.96302086
244303329.00588024
244912501.24830377
244303329.00588024
244912501.24830377
165372934.4243998
165730683.6005193
165372934.4243998
165730683.6005193
92504890.41361444
93129336.01987886
92795084.32659152
93129336.01987886
27710229.04171391
27708407.986794416
27710229.04171391
27708407.986794416
356996669.23180854
356996669.23180854
356983158.1791801
310627324.04791135
311598944.96302086
310627324.04791135
311598944.96302086
244303329.00588024
244912501.24830377
244303329.00588024
244912501.24830377
165372934.4243998
165730683.6005193
165372934.4243998
165730683.6005193
92795084.32659152
93129336.01987886
92795084.32659152
92333358.78893973
27710229.04171391
27708407.986794416
27710229.04171391
27708407.986794416
427851566.4009493
356996669.23180854
356983158.1791801
356996669.23180854
356983158.1791801
310627324.04791135
311598944.96302086
310627324.04791135
311598944.96302086
244303329.00588024
244912501.24830377
244303329.00588024
244912501.24830377
165372934.4243998
165730683.6005193
165849933.32589248
165730683.6005193
92795084.32659152
92333358.78893973
92795084.32659152
92333358.78893973
27710229.04171391
27708407.986794416
27710229.04171391
27708407.986794416
427851566.4009493
427851566.4009493
428633445.14218915
356996669.23180854
356983158.1791801
356996669.23180854
356983158.1791801
310627324.04791135
311598944.96302086
310627324.04791135
311598944.96302086
244303329.00588024
244912501.24830377
244303329.00588024
244912501.24830377
165849933.32589248
165730683.6005193
165849933.32589248
164839541.56410995
92795084.32659152
92333358.78893973
92795084.32659152
92333358.78893973
27710229.04171391
27708407.986794416
27710229.04171391
27708407.986794416
470158784.24023825
427851566.4009493
428633445.14218915
427851566.4009493
428633445.14218915
356996669.23180854
356983158.1791801
356996669.23180854
356983158.1791801
310627324.04791135
311598944.96302086
310627324.04791135
311598944.96302086
244303329.00588024
244912501.24830377
244376758.63973072
244912501.24830377
165849933.32589248
164839541.56410995
165849933.32589248
164839541.56410995
92795084.32659152
92333358.78893973
92795084.32659152
92333358.78893973
27710229.04171391
27708407.986794416
27710229.04171391
27708407.986794416
230526613.61223936
230006138.50704068
230526613.61223936
157119768.4689256
155922083.7796696
155922083.7796696
157119768.4689256
157119768.4689256
155922083.7796696
155922083.7796696
87489350.62036124
87489350.62036124
87767289.68590792
87767289.68590792
87767289.68590792
87489350.62036124
87489350.62036124
87489350.62036124
87767289.68590792
87767289.68590792
87767289.68590792
26711018.39845145
26711018.39845145
26711018.39845145
26711018.39845145
26941046.02431828
26941046.02431828
26941046.02431828
26711018.39845145
26711018.39845145
26711018.39845145
26429231.964058187
26941046.02431828
27221116.464219943
27221116.464219943
27221116.464219943
293882843.7729041
230526613.61223936
230006138.50704068
230526613.61223936
230006138.50704068
155922083.7796696
157119768.4689256
155922083.7796696
157119768.4689256
87767289.68590792
87489350.62036124
87767289.68590792
87489350.62036124
26941046.02431828
26711018.39845145
27221116.464219943
26711018.39845145
293882843.7729041
293882843.7729041
291590084.75691116
230526613.61223936
230006138.50704068
230526613.61223936
230006138.50704068
155922083.7796696
157119768.4689256
155922083.7796696
157119768.4689256
87767289.68590792
87489350.62036124
87767289.68590792
87489350.62036124
27221116.464219943
26711018.39845145
27221116.464219943
26429231.964058187
356996669.23180854
310627324.04791135
311598944.96302086
310627324.04791135
311598944.96302086
230526613.61223936
244912501.24830377
230526613.61223936
230006138.50704068
165372934.4243998
157119768.4689256
165372934.4243998
165730683.6005193
92504890.41361444
93129336.01987886
92795084.32659152
93129336.01987886
27710229.04171391
27708407.986794416
27710229.04171391
27708407.986794416
356996669.23180854
356996669.23180854
356983158.1791801
310627324.04791135
311598944.96302086
310627324.04791135
311598944.96302086
244303329.00588024
244912501.24830377
244303329.00588024
244912501.24830377
165372934.4243998
165730683.6005193
165372934.4243998
165730683.6005193
92795084.32659152
93129336.01987886
92795084.32659152
92333358.78893973
27710229.04171391
27708407.986794416
27710229.04171391
27708407.986794416
427851566.4009493
356996669.23180854
356983158.1791801
356996669.23180854
356983158.1791801
310627324.04791135
311598944.96302086
310627324.04791135
311598944.96302086
244303329.00588024
244912501.24830377
244303329.00588024
244912501.24830377
165372934.4243998
165730683.6005193
165849933.32589248
165730683.6005193
92795084.32659152
92333358.78893973
92795084.32659152
92333358.78893973
27710229.04171391
27708407.986794416
27710229.04171391
27708407.986794416
427851566.4009493
427851566.4009493
428633445.14218915
356996669.23180854
356983158.1791801
356996669.23180854
356983158.1791801
310627324.04791135
311598944.96302086
310627324.04791135
311598944.96302086
244303329.00588024
244912501.24830377
244303329.00588024
244912501.24830377
165849933.32589248
165730683.6005193
165849933.32589248
164839541.56410995
92795084.32659152
92333358.78893973
92795084.32659152
92333358.78893973
27710229.04171391
27708407.986794416
27710229.04171391
27708407.986794416
470158784.24023825
427851566.4009493
428633445.14218915
427851566.4009493
428633445.14218915
356996669.23180854
356983158.1791801
356996669.23180854
356983158.1791801
310627324.04791135
311598944.96302086
310627324.04791135
311598944.96302086
244303329.00588024
244912501.24830377
244376758.63973072
244912501.24830377
165849933.32589248
164839541.56410995
165849933.32589248
164839541.56410995
92795084.32659152
92333358.78893973
92795084.32659152
92333358.78893973
27710229.04171391
27708407.986794416
27710229.04171391
27708407.986794416
470158784.24023825
470158784.24023825
471570982.95845056
427851566.4009493
428633445.14218915
427851566.4009493
428633445.14218915
356996669.23180854
356983158.1791801
356996669.23180854
356983158.1791801
310627324.04791135
311598944.96302086
310627324.04791135
311598944.96302086
244376758.63973072
244912501.24830377
244376758.63973072
244418466.6717578
165849933.32589248
164839541.56410995
165849933.32589248
164839541.56410995
92795084.32659152
92333358.78893973
92795084.32659152
92333358.78893973
27710229.04171391
27708407.986794416
27710229.04171391
27708407.986794416
293882843.7729041
230006138.50704068
230526613.61223936
230006138.50704068
230526613.61223936
230526613.61223936
157119768.4689256
157119768.4689256
155922083.7796696
155922083.7796696
157119768.4689256
157119768.4689256
155922083.7796696
155922083.7796696
155922083.7796696
87489350.62036124
87489350.62036124
87489350.62036124
87767289.68590792
87767289.68590792
87767289.68590792
87489350.62036124
87489350.62036124
87489350.62036124
87489350.62036124
87767289.68590792
87767289.68590792
87767289.68590792
26711018.39845145
26711018.39845145
26711018.39845145
26429231.964058187
26941046.02431828
27221116.464219943
27221116.464219943
27221116.464219943
26429231.964058187
26429231.964058187
26429231.964058187
26429231.964058187
27221116.464219943
27221116.464219943
27221116.464219943
27221116.464219943
293882843.7729041
293882843.7729041
291590084.75691116
230526613.61223936
230006138.50704068
230526613.61223936
230006138.50704068
155922083.7796696
157119768.4689256
155922083.7796696
157119768.4689256
87767289.68590792
87489350.62036124
87767289.68590792
87489350.62036124
27221116.464219943
26711018.39845145
27221116.464219943
336850040.5408741
293882843.7729041
291590084.75691116
293882843.7729041
291590084.75691116
230526613.61223936
230006138.50704068
230526613.61223936
230006138.50704068
155922083.7796696
157119768.4689256
155922083.7796696
157119768.4689256
87767289.68590792
87489350.62036124
86872263.2538385
87489350.62036124
27221116.464219943
26429231.964058187
27221116.464219943
26429231.964058187
356996669.23180854
356996669.23180854
356983158.1791801
310627324.04791135
311598944.96302086
293882843.7729041
311598944.96302086
230526613.61223936
230006138.50704068
244303329.00588024
230006138.50704068
165372934.4243998
165730683.6005193
165372934.4243998
165730683.6005193
92795084.32659152
93129336.01987886
92795084.32659152
92333358.78893973
27710229.04171391
27708407.986794416
27221116.464219943
27708407.986794416
427851566.4009493
356996669.23180854
356983158.1791801
356996669.23180854
356983158.1791801
310627324.04791135
311598944.96302086
310627324.04791135
311598944.96302086
244303329.00588024
244912501.24830377
244303329.00588024
244912501.24830377
165372934.4243998
165730683.6005193
165849933.32589248
165730683.6005193
92795084.32659152
92333358.78893973
92795084.32659152
92333358.78893973
27710229.04171391
27708407.986794416
27710229.04171391
27708407.986794416
427851566.4009493
427851566.4009493
428633445.14218915
356996669.23180854
356983158.1791801
356996669.23180854
356983158.1791801
310627324.04791135
311598944.96302086
310627324.04791135
311598944.96302086
244303329.00588024
244912501.24830377
244303329.00588024
244912501.24830377
165849933.32589248
165730683.6005193
165849933.32589248
164839541.56410995
92795084.32659152
92333358.78893973
92795084.32659152
92333358.78893973
27710229.04171391
27708407.986794416
27710229.04171391
27708407.986794416
470158784.24023825
427851566.4009493
428633445.14218915
427851566.4009493
428633445.14218915
356996669.23180854
356983158.1791801
356996669.23180854
356983158.1791801
310627324.04791135
311598944.96302086
310627324.04791135
311598944.96302086
244303329.00588024
244912501.24830377
244376758.63973072
244912501.24830377
165849933.32589248
164839541.56410995
165849933.32589248
164839541.56410995
92795084.32659152
92333358.78893973
92795084.32659152
92333358.78893973
27710229.04171391
27708407.986794416
27710229.04171391
27708407.986794416
470158784.24023825
470158784.24023825
471570982.95845056
427851566.4009493
428633445.14218915
427851566.4009493
428633445.14218915
356996669.23180854
356983158.1791801
356996669.23180854
356983158.1791801
310627324.04791135