/*--------------------------------*- C++ -*----------------------------------*\
| =========                 |                                                 |
| \\      /  F ield         | OpenFOAM: The Open Source CFD Toolbox           |
|  \\    /   O peration     | Version:  2106                                  |
|   \\  /    A nd           | Website:  www.openfoam.com                      |
|    \\/     M anipulation  |                                                 |
\*---------------------------------------------------------------------------*/
FoamFile
{
    version     2.0;
    format      ascii;
    arch        "LSB;label=32;scalar=64";
    class       volScalarField;
    location    "0/coolant";
    object      k;
}
// * * * * * * * * * * * * * * * * * * * * * * * * * * * * * * * * * * * * * //

dimensions      [ 0 2 -2 0 0 0 0 ];

internalField   uniform 0.04;

boundaryField
{
    zmin
    {
        type            fixedValue;
        value           uniform 0.04;
    }
    zmax
    {
        type            inletOutlet;
        value           uniform 0.04;
        inletValue      uniform 0.04;
    }
    coolant_to_cladding
    {
        type            fixedValue;
        value           uniform 1e-08;
    }
    walls
    {
        type            symmetry;
    }
}


// ************************************************************************* //
