/*--------------------------------*- C++ -*----------------------------------*\
| =========                 |                                                 |
| \\      /  F ield         | OpenFOAM: The Open Source CFD Toolbox           |
|  \\    /   O peration     | Version:  2106                                  |
|   \\  /    A nd           | Website:  www.openfoam.com                      |
|    \\/     M anipulation  |                                                 |
\*---------------------------------------------------------------------------*/
FoamFile
{
    version     2.0;
    format      ascii;
    arch        "LSB;label=32;scalar=64";
    class       volScalarField;
    location    "0/fuel";
    object      p;
}
// * * * * * * * * * * * * * * * * * * * * * * * * * * * * * * * * * * * * * //

dimensions      [ 1 -1 -2 0 0 0 0 ];

internalField   uniform 100000;

boundaryField
{
    ".*"
    {
        type            zeroGradient;
    }
    zmax
    {
        type            fixedFluxPressure;
        value           $internalField;
    }
    zmin
    {
        type            fixedFluxPressure;
        value           $internalField;
    }
    fuel_to_cladding
    {
        type            fixedFluxPressure;
        value           $internalField;
    }
}


// ************************************************************************* //
