/*--------------------------------*- C++ -*----------------------------------*\
| =========                 |                                                 |
| \\      /  F ield         | OpenFOAM: The Open Source CFD Toolbox           |
|  \\    /   O peration     | Version:  2106                                  |
|   \\  /    A nd           | Website:  www.openfoam.com                      |
|    \\/     M anipulation  |                                                 |
\*---------------------------------------------------------------------------*/
FoamFile
{
    version     2.0;
    format      ascii;
    arch        "LSB;label=32;scalar=64";
    class       volScalarField;
    location    "0/fuel";
    object      T;
}
// * * * * * * * * * * * * * * * * * * * * * * * * * * * * * * * * * * * * * //

dimensions      [ 0 0 0 1 0 0 0 ];

internalField   uniform 900;

boundaryField
{
    zmax
    {
        type            zeroGradient;
    }
    zmin
    {
        type            zeroGradient;
    }
    fuel_to_cladding
    {
        type            compressible::turbulentTemperatureCoupledBaffleMixed;
        Tnbr            T;
        kappaMethod     solidThermo;
        value           $internalField;
        thicknessLayer 3.6162e-05;
        kappaLayer     2.41e-1;
    }
}


// ************************************************************************* //
